/*---------------------------------------------------------------------------*\
| =========                 |                                                 |
| \\      /  F ield         | OpenFOAM: The Open Source CFD Toolbox           |
|  \\    /   O peration     | Version:  2312                                  |
|   \\  /    A nd           | Website:  www.openfoam.com                      |
|    \\/     M anipulation  |                                                 |
\*---------------------------------------------------------------------------*/
Build  : _c39a0f64-20231220 OPENFOAM=2312 version=2312
Arch   : "LSB;label=32;scalar=64"
Exec   : myWaveFoam
Date   : Aug 16 2024
Time   : 00:56:53
Host   : DYUTI
PID    : 40888
I/O    : uncollated
Case   : /home/dyuti/testCase/myWaveFoam/1D
nProcs : 1
trapFpe: Floating point exception trapping enabled (FOAM_SIGFPE).
fileModificationChecking : Monitoring run-time modified files using timeStampMaster (fileModificationSkew 5, maxFileModificationPolls 20)
allowSystemOperations : Allowing user-supplied system call operations

// * * * * * * * * * * * * * * * * * * * * * * * * * * * * * * * * * * * * * //
Create time

Create mesh for time = 0


SIMPLE: no convergence criteria found. Calculations will run for 10 steps.

Reading field T

Reading transportProperties

Reading DT


Calculating Wave Equation

Time = 0.001

DICPCG:  Solving for T, Initial residual = 0.0149363, Final residual = 0.000110157, No Iterations 1
Time = 0.002

DICPCG:  Solving for T, Initial residual = 0.0188752, Final residual = 2.90902e-05, No Iterations 2
Time = 0.003

DICPCG:  Solving for T, Initial residual = 0.0171156, Final residual = 3.57194e-05, No Iterations 2
Time = 0.004

DICPCG:  Solving for T, Initial residual = 0.0144568, Final residual = 3.85043e-05, No Iterations 2
Time = 0.005

DICPCG:  Solving for T, Initial residual = 0.016646, Final residual = 0.000136603, No Iterations 1
Time = 0.006

DICPCG:  Solving for T, Initial residual = 0.0166099, Final residual = 0.000315236, No Iterations 1
Time = 0.007

DICPCG:  Solving for T, Initial residual = 0.0157714, Final residual = 0.000138817, No Iterations 1
Time = 0.008

DICPCG:  Solving for T, Initial residual = 0.0163463, Final residual = 8.71904e-05, No Iterations 1
Time = 0.009

DICPCG:  Solving for T, Initial residual = 0.0165555, Final residual = 8.26333e-05, No Iterations 1
Time = 0.01

DICPCG:  Solving for T, Initial residual = 0.0168232, Final residual = 8.73658e-05, No Iterations 1
Time = 0.011

DICPCG:  Solving for T, Initial residual = 0.0173561, Final residual = 9.30657e-05, No Iterations 1
Time = 0.012

DICPCG:  Solving for T, Initial residual = 0.0179673, Final residual = 9.42597e-05, No Iterations 1
Time = 0.013

DICPCG:  Solving for T, Initial residual = 0.0186281, Final residual = 9.60507e-05, No Iterations 1
Time = 0.014

DICPCG:  Solving for T, Initial residual = 0.0193319, Final residual = 9.82983e-05, No Iterations 1
Time = 0.015

DICPCG:  Solving for T, Initial residual = 0.0201073, Final residual = 0.000100119, No Iterations 1
Time = 0.016

DICPCG:  Solving for T, Initial residual = 0.0208669, Final residual = 0.000102016, No Iterations 1
Time = 0.017

DICPCG:  Solving for T, Initial residual = 0.0217572, Final residual = 0.000104133, No Iterations 1
Time = 0.018

DICPCG:  Solving for T, Initial residual = 0.0226158, Final residual = 0.000106277, No Iterations 1
Time = 0.019

DICPCG:  Solving for T, Initial residual = 0.0236131, Final residual = 0.000108546, No Iterations 1
Time = 0.02

DICPCG:  Solving for T, Initial residual = 0.0245877, Final residual = 0.000110842, No Iterations 1
Time = 0.021

DICPCG:  Solving for T, Initial residual = 0.0256959, Final residual = 0.000113367, No Iterations 1
Time = 0.022

DICPCG:  Solving for T, Initial residual = 0.0268355, Final residual = 0.000115997, No Iterations 1
Time = 0.023

DICPCG:  Solving for T, Initial residual = 0.0280526, Final residual = 0.000118745, No Iterations 1
Time = 0.024

DICPCG:  Solving for T, Initial residual = 0.0293493, Final residual = 0.000121658, No Iterations 1
Time = 0.025

DICPCG:  Solving for T, Initial residual = 0.0306424, Final residual = 0.000124389, No Iterations 1
Time = 0.026

DICPCG:  Solving for T, Initial residual = 0.0319267, Final residual = 0.000126885, No Iterations 1
Time = 0.027

DICPCG:  Solving for T, Initial residual = 0.0332246, Final residual = 0.00012933, No Iterations 1
Time = 0.028

DICPCG:  Solving for T, Initial residual = 0.0345464, Final residual = 0.000131576, No Iterations 1
Time = 0.029

DICPCG:  Solving for T, Initial residual = 0.0357853, Final residual = 0.000133523, No Iterations 1
Time = 0.03

DICPCG:  Solving for T, Initial residual = 0.0370907, Final residual = 0.000135371, No Iterations 1
Time = 0.031

DICPCG:  Solving for T, Initial residual = 0.0383246, Final residual = 0.000136937, No Iterations 1
Time = 0.032

DICPCG:  Solving for T, Initial residual = 0.0395151, Final residual = 0.000138154, No Iterations 1
Time = 0.033

DICPCG:  Solving for T, Initial residual = 0.0406326, Final residual = 0.000139007, No Iterations 1
Time = 0.034

DICPCG:  Solving for T, Initial residual = 0.0416865, Final residual = 0.00013951, No Iterations 1
Time = 0.035

DICPCG:  Solving for T, Initial residual = 0.0426264, Final residual = 0.000139577, No Iterations 1
Time = 0.036

DICPCG:  Solving for T, Initial residual = 0.0434341, Final residual = 0.000139092, No Iterations 1
Time = 0.037

DICPCG:  Solving for T, Initial residual = 0.0441261, Final residual = 0.000138148, No Iterations 1
Time = 0.038

DICPCG:  Solving for T, Initial residual = 0.0446818, Final residual = 0.000136823, No Iterations 1
Time = 0.039

DICPCG:  Solving for T, Initial residual = 0.0451453, Final residual = 0.000135064, No Iterations 1
Time = 0.04

DICPCG:  Solving for T, Initial residual = 0.0453823, Final residual = 0.000132686, No Iterations 1
Time = 0.041

DICPCG:  Solving for T, Initial residual = 0.0454066, Final residual = 0.000129725, No Iterations 1
Time = 0.042

DICPCG:  Solving for T, Initial residual = 0.0452927, Final residual = 0.000126324, No Iterations 1
Time = 0.043

DICPCG:  Solving for T, Initial residual = 0.044959, Final residual = 0.000122442, No Iterations 1
Time = 0.044

DICPCG:  Solving for T, Initial residual = 0.0444798, Final residual = 0.000118207, No Iterations 1
Time = 0.045

DICPCG:  Solving for T, Initial residual = 0.0438467, Final residual = 0.000113653, No Iterations 1
Time = 0.046

DICPCG:  Solving for T, Initial residual = 0.0430184, Final residual = 0.00010875, No Iterations 1
Time = 0.047

DICPCG:  Solving for T, Initial residual = 0.0420715, Final residual = 0.000103595, No Iterations 1
Time = 0.048

DICPCG:  Solving for T, Initial residual = 0.0409669, Final residual = 9.82288e-05, No Iterations 1
Time = 0.049

DICPCG:  Solving for T, Initial residual = 0.0397328, Final residual = 9.27186e-05, No Iterations 1
Time = 0.05

DICPCG:  Solving for T, Initial residual = 0.0384036, Final residual = 8.70993e-05, No Iterations 1
Time = 0.051

DICPCG:  Solving for T, Initial residual = 0.0369715, Final residual = 8.14693e-05, No Iterations 1
Time = 0.052

DICPCG:  Solving for T, Initial residual = 0.035486, Final residual = 7.58701e-05, No Iterations 1
Time = 0.053

DICPCG:  Solving for T, Initial residual = 0.0339462, Final residual = 7.03431e-05, No Iterations 1
Time = 0.054

DICPCG:  Solving for T, Initial residual = 0.0323429, Final residual = 6.49196e-05, No Iterations 1
Time = 0.055

DICPCG:  Solving for T, Initial residual = 0.0307406, Final residual = 5.96288e-05, No Iterations 1
Time = 0.056

DICPCG:  Solving for T, Initial residual = 0.0290237, Final residual = 5.43672e-05, No Iterations 1
Time = 0.057

DICPCG:  Solving for T, Initial residual = 0.0273078, Final residual = 4.93145e-05, No Iterations 1
Time = 0.058

DICPCG:  Solving for T, Initial residual = 0.0256777, Final residual = 4.46276e-05, No Iterations 1
Time = 0.059

DICPCG:  Solving for T, Initial residual = 0.0241442, Final residual = 4.03423e-05, No Iterations 1
Time = 0.06

DICPCG:  Solving for T, Initial residual = 0.0227207, Final residual = 3.64193e-05, No Iterations 1
Time = 0.061

DICPCG:  Solving for T, Initial residual = 0.0213596, Final residual = 3.28198e-05, No Iterations 1
Time = 0.062

DICPCG:  Solving for T, Initial residual = 0.0200781, Final residual = 2.95074e-05, No Iterations 1
Time = 0.063

DICPCG:  Solving for T, Initial residual = 0.0188784, Final residual = 2.64523e-05, No Iterations 1
Time = 0.064

DICPCG:  Solving for T, Initial residual = 0.0177087, Final residual = 2.36306e-05, No Iterations 1
Time = 0.065

DICPCG:  Solving for T, Initial residual = 0.0165562, Final residual = 2.1016e-05, No Iterations 1
Time = 0.066

DICPCG:  Solving for T, Initial residual = 0.0154278, Final residual = 1.85934e-05, No Iterations 1
Time = 0.067

DICPCG:  Solving for T, Initial residual = 0.0143207, Final residual = 1.63391e-05, No Iterations 1
Time = 0.068

DICPCG:  Solving for T, Initial residual = 0.013212, Final residual = 1.42347e-05, No Iterations 1
Time = 0.069

DICPCG:  Solving for T, Initial residual = 0.0120942, Final residual = 1.22651e-05, No Iterations 1
Time = 0.07

DICPCG:  Solving for T, Initial residual = 0.010963, Final residual = 1.04096e-05, No Iterations 1
Time = 0.071

DICPCG:  Solving for T, Initial residual = 0.00981898, Final residual = 8.65242e-06, No Iterations 1
Time = 0.072

DICPCG:  Solving for T, Initial residual = 0.00867516, Final residual = 6.9819e-06, No Iterations 1
Time = 0.073

DICPCG:  Solving for T, Initial residual = 0.00753761, Final residual = 5.38232e-06, No Iterations 1
Time = 0.074

DICPCG:  Solving for T, Initial residual = 0.00641665, Final residual = 3.83899e-06, No Iterations 1
Time = 0.075

DICPCG:  Solving for T, Initial residual = 0.00534708, Final residual = 2.33896e-06, No Iterations 1
Time = 0.076

DICPCG:  Solving for T, Initial residual = 0.00438053, Final residual = 8.74204e-07, No Iterations 1
Time = 0.077

DICPCG:  Solving for T, Initial residual = 0.00369524, Final residual = 5.52542e-07, No Iterations 1
Time = 0.078

DICPCG:  Solving for T, Initial residual = 0.00363537, Final residual = 2.0397e-06, No Iterations 1
Time = 0.079

DICPCG:  Solving for T, Initial residual = 0.00418675, Final residual = 3.55452e-06, No Iterations 1
Time = 0.08

DICPCG:  Solving for T, Initial residual = 0.00541825, Final residual = 5.07371e-06, No Iterations 1
Time = 0.081

DICPCG:  Solving for T, Initial residual = 0.00671279, Final residual = 6.60952e-06, No Iterations 1
Time = 0.082

DICPCG:  Solving for T, Initial residual = 0.00802558, Final residual = 8.18755e-06, No Iterations 1
Time = 0.083

DICPCG:  Solving for T, Initial residual = 0.00931672, Final residual = 9.82502e-06, No Iterations 1
Time = 0.084

DICPCG:  Solving for T, Initial residual = 0.0105828, Final residual = 1.15383e-05, No Iterations 1
Time = 0.085

DICPCG:  Solving for T, Initial residual = 0.0118278, Final residual = 1.33438e-05, No Iterations 1
Time = 0.086

DICPCG:  Solving for T, Initial residual = 0.0130448, Final residual = 1.52535e-05, No Iterations 1
Time = 0.087

DICPCG:  Solving for T, Initial residual = 0.0142312, Final residual = 1.72816e-05, No Iterations 1
Time = 0.088

DICPCG:  Solving for T, Initial residual = 0.015391, Final residual = 1.9447e-05, No Iterations 1
Time = 0.089

DICPCG:  Solving for T, Initial residual = 0.0165332, Final residual = 2.17651e-05, No Iterations 1
Time = 0.09

DICPCG:  Solving for T, Initial residual = 0.017654, Final residual = 2.42513e-05, No Iterations 1
Time = 0.091

DICPCG:  Solving for T, Initial residual = 0.0187537, Final residual = 2.69179e-05, No Iterations 1
Time = 0.092

DICPCG:  Solving for T, Initial residual = 0.0198431, Final residual = 2.97858e-05, No Iterations 1
Time = 0.093

DICPCG:  Solving for T, Initial residual = 0.0209317, Final residual = 3.2873e-05, No Iterations 1
Time = 0.094

DICPCG:  Solving for T, Initial residual = 0.0220123, Final residual = 3.61859e-05, No Iterations 1
Time = 0.095

DICPCG:  Solving for T, Initial residual = 0.0231032, Final residual = 3.97559e-05, No Iterations 1
Time = 0.096

DICPCG:  Solving for T, Initial residual = 0.0242311, Final residual = 4.36133e-05, No Iterations 1
Time = 0.097

DICPCG:  Solving for T, Initial residual = 0.0253873, Final residual = 4.77845e-05, No Iterations 1
Time = 0.098

DICPCG:  Solving for T, Initial residual = 0.0265729, Final residual = 5.22846e-05, No Iterations 1
Time = 0.099

DICPCG:  Solving for T, Initial residual = 0.0278098, Final residual = 5.71538e-05, No Iterations 1
Time = 0.1

DICPCG:  Solving for T, Initial residual = 0.0291108, Final residual = 6.24442e-05, No Iterations 1
Time = 0.101

DICPCG:  Solving for T, Initial residual = 0.0304868, Final residual = 6.82046e-05, No Iterations 1
Time = 0.102

DICPCG:  Solving for T, Initial residual = 0.0319751, Final residual = 7.44959e-05, No Iterations 1
Time = 0.103

DICPCG:  Solving for T, Initial residual = 0.0335675, Final residual = 8.13787e-05, No Iterations 1
Time = 0.104

DICPCG:  Solving for T, Initial residual = 0.0352652, Final residual = 8.88923e-05, No Iterations 1
Time = 0.105

DICPCG:  Solving for T, Initial residual = 0.0371141, Final residual = 9.71422e-05, No Iterations 1
Time = 0.106

DICPCG:  Solving for T, Initial residual = 0.0389752, Final residual = 0.000105855, No Iterations 1
Time = 0.107

DICPCG:  Solving for T, Initial residual = 0.04073, Final residual = 0.000114676, No Iterations 1
Time = 0.108

DICPCG:  Solving for T, Initial residual = 0.0424091, Final residual = 0.000123676, No Iterations 1
Time = 0.109

DICPCG:  Solving for T, Initial residual = 0.0440151, Final residual = 0.000132847, No Iterations 1
Time = 0.11

DICPCG:  Solving for T, Initial residual = 0.0455069, Final residual = 0.000142083, No Iterations 1
Time = 0.111

DICPCG:  Solving for T, Initial residual = 0.0469035, Final residual = 0.000151343, No Iterations 1
Time = 0.112

DICPCG:  Solving for T, Initial residual = 0.0481418, Final residual = 0.000160458, No Iterations 1
Time = 0.113

DICPCG:  Solving for T, Initial residual = 0.049199, Final residual = 0.000169312, No Iterations 1
Time = 0.114

DICPCG:  Solving for T, Initial residual = 0.050082, Final residual = 0.000177793, No Iterations 1
Time = 0.115

DICPCG:  Solving for T, Initial residual = 0.0506901, Final residual = 0.000185597, No Iterations 1
Time = 0.116

DICPCG:  Solving for T, Initial residual = 0.0510698, Final residual = 0.000192703, No Iterations 1
Time = 0.117

DICPCG:  Solving for T, Initial residual = 0.0511987, Final residual = 0.000199002, No Iterations 1
Time = 0.118

DICPCG:  Solving for T, Initial residual = 0.0510585, Final residual = 0.000204363, No Iterations 1
Time = 0.119

DICPCG:  Solving for T, Initial residual = 0.0506844, Final residual = 0.000208704, No Iterations 1
Time = 0.12

DICPCG:  Solving for T, Initial residual = 0.0500171, Final residual = 0.000211829, No Iterations 1
Time = 0.121

DICPCG:  Solving for T, Initial residual = 0.0490976, Final residual = 0.000213705, No Iterations 1
Time = 0.122

DICPCG:  Solving for T, Initial residual = 0.0479572, Final residual = 0.000214389, No Iterations 1
Time = 0.123

DICPCG:  Solving for T, Initial residual = 0.0466088, Final residual = 0.00021391, No Iterations 1
Time = 0.124

DICPCG:  Solving for T, Initial residual = 0.0451195, Final residual = 0.00021234, No Iterations 1
Time = 0.125

DICPCG:  Solving for T, Initial residual = 0.0434357, Final residual = 0.000209535, No Iterations 1
Time = 0.126

DICPCG:  Solving for T, Initial residual = 0.0416329, Final residual = 0.000205635, No Iterations 1
Time = 0.127

DICPCG:  Solving for T, Initial residual = 0.0397231, Final residual = 0.000200777, No Iterations 1
Time = 0.128

DICPCG:  Solving for T, Initial residual = 0.037739, Final residual = 0.00019496, No Iterations 1
Time = 0.129

DICPCG:  Solving for T, Initial residual = 0.0356499, Final residual = 0.000188156, No Iterations 1
Time = 0.13

DICPCG:  Solving for T, Initial residual = 0.0335425, Final residual = 0.000180652, No Iterations 1
Time = 0.131

DICPCG:  Solving for T, Initial residual = 0.0315051, Final residual = 0.000173031, No Iterations 1
Time = 0.132

DICPCG:  Solving for T, Initial residual = 0.0295479, Final residual = 0.000165427, No Iterations 1
Time = 0.133

DICPCG:  Solving for T, Initial residual = 0.0276946, Final residual = 0.00015794, No Iterations 1
Time = 0.134

DICPCG:  Solving for T, Initial residual = 0.0259381, Final residual = 0.000150594, No Iterations 1
Time = 0.135

DICPCG:  Solving for T, Initial residual = 0.0242652, Final residual = 0.000143427, No Iterations 1
Time = 0.136

DICPCG:  Solving for T, Initial residual = 0.0226701, Final residual = 0.000136454, No Iterations 1
Time = 0.137

DICPCG:  Solving for T, Initial residual = 0.0211526, Final residual = 0.000129729, No Iterations 1
Time = 0.138

DICPCG:  Solving for T, Initial residual = 0.0197057, Final residual = 0.000123262, No Iterations 1
Time = 0.139

DICPCG:  Solving for T, Initial residual = 0.0183238, Final residual = 0.000117051, No Iterations 1
Time = 0.14

DICPCG:  Solving for T, Initial residual = 0.0170031, Final residual = 0.000111094, No Iterations 1
Time = 0.141

DICPCG:  Solving for T, Initial residual = 0.0157237, Final residual = 0.000105365, No Iterations 1
Time = 0.142

DICPCG:  Solving for T, Initial residual = 0.014478, Final residual = 9.98549e-05, No Iterations 1
Time = 0.143

DICPCG:  Solving for T, Initial residual = 0.0132614, Final residual = 9.45746e-05, No Iterations 1
Time = 0.144

DICPCG:  Solving for T, Initial residual = 0.0120692, Final residual = 8.95291e-05, No Iterations 1
Time = 0.145

DICPCG:  Solving for T, Initial residual = 0.0108965, Final residual = 8.47222e-05, No Iterations 1
Time = 0.146

DICPCG:  Solving for T, Initial residual = 0.00973932, Final residual = 8.0164e-05, No Iterations 1
Time = 0.147

DICPCG:  Solving for T, Initial residual = 0.00859458, Final residual = 7.58731e-05, No Iterations 1
Time = 0.148

DICPCG:  Solving for T, Initial residual = 0.00746002, Final residual = 7.1882e-05, No Iterations 1
Time = 0.149

DICPCG:  Solving for T, Initial residual = 0.00633361, Final residual = 6.82446e-05, No Iterations 1
Time = 0.15

DICPCG:  Solving for T, Initial residual = 0.00521402, Final residual = 6.50548e-05, No Iterations 1
Time = 0.151

DICPCG:  Solving for T, Initial residual = 0.00410089, Final residual = 6.24802e-05, No Iterations 1
Time = 0.152

DICPCG:  Solving for T, Initial residual = 0.00300628, Final residual = 6.0909e-05, No Iterations 1
Time = 0.153

DICPCG:  Solving for T, Initial residual = 0.00192341, Final residual = 6.07511e-05, No Iterations 1
Time = 0.154

DICPCG:  Solving for T, Initial residual = 0.00104798, Final residual = 2.2332e-06, No Iterations 2
Time = 0.155

DICPCG:  Solving for T, Initial residual = 0.000952652, Final residual = 2.89943e-07, No Iterations 2
Time = 0.156

DICPCG:  Solving for T, Initial residual = 0.00176026, Final residual = 6.58388e-05, No Iterations 1
Time = 0.157

DICPCG:  Solving for T, Initial residual = 0.00279962, Final residual = 3.74918e-05, No Iterations 1
Time = 0.158

DICPCG:  Solving for T, Initial residual = 0.00386394, Final residual = 2.51051e-05, No Iterations 1
Time = 0.159

DICPCG:  Solving for T, Initial residual = 0.00496036, Final residual = 1.82708e-05, No Iterations 1
Time = 0.16

DICPCG:  Solving for T, Initial residual = 0.00605744, Final residual = 1.73016e-05, No Iterations 1
Time = 0.161

DICPCG:  Solving for T, Initial residual = 0.00715527, Final residual = 2.10602e-05, No Iterations 1
Time = 0.162

DICPCG:  Solving for T, Initial residual = 0.00825795, Final residual = 2.42286e-05, No Iterations 1
Time = 0.163

DICPCG:  Solving for T, Initial residual = 0.00937648, Final residual = 2.69432e-05, No Iterations 1
Time = 0.164

DICPCG:  Solving for T, Initial residual = 0.0105038, Final residual = 2.9239e-05, No Iterations 1
Time = 0.165

DICPCG:  Solving for T, Initial residual = 0.0116429, Final residual = 3.11145e-05, No Iterations 1
Time = 0.166

DICPCG:  Solving for T, Initial residual = 0.0127978, Final residual = 3.2571e-05, No Iterations 1
Time = 0.167

DICPCG:  Solving for T, Initial residual = 0.0139739, Final residual = 3.36252e-05, No Iterations 1
Time = 0.168

DICPCG:  Solving for T, Initial residual = 0.0151738, Final residual = 3.42985e-05, No Iterations 1
Time = 0.169

DICPCG:  Solving for T, Initial residual = 0.0164042, Final residual = 3.462e-05, No Iterations 1
Time = 0.17

DICPCG:  Solving for T, Initial residual = 0.0176752, Final residual = 3.4623e-05, No Iterations 1
Time = 0.171

DICPCG:  Solving for T, Initial residual = 0.0189964, Final residual = 3.43364e-05, No Iterations 1
Time = 0.172

DICPCG:  Solving for T, Initial residual = 0.0203847, Final residual = 3.37842e-05, No Iterations 1
Time = 0.173

DICPCG:  Solving for T, Initial residual = 0.0218418, Final residual = 3.29943e-05, No Iterations 1
Time = 0.174

DICPCG:  Solving for T, Initial residual = 0.0233813, Final residual = 3.20016e-05, No Iterations 1
Time = 0.175

DICPCG:  Solving for T, Initial residual = 0.0250211, Final residual = 3.08413e-05, No Iterations 1
Time = 0.176

DICPCG:  Solving for T, Initial residual = 0.0267706, Final residual = 2.95406e-05, No Iterations 1
Time = 0.177

DICPCG:  Solving for T, Initial residual = 0.0286431, Final residual = 2.8126e-05, No Iterations 1
Time = 0.178

DICPCG:  Solving for T, Initial residual = 0.0306567, Final residual = 2.66264e-05, No Iterations 1
Time = 0.179

DICPCG:  Solving for T, Initial residual = 0.0328252, Final residual = 2.87449e-05, No Iterations 1
Time = 0.18

DICPCG:  Solving for T, Initial residual = 0.0351772, Final residual = 3.10724e-05, No Iterations 1
Time = 0.181

DICPCG:  Solving for T, Initial residual = 0.0377394, Final residual = 3.34516e-05, No Iterations 1
Time = 0.182

DICPCG:  Solving for T, Initial residual = 0.040537, Final residual = 3.58983e-05, No Iterations 1
Time = 0.183

DICPCG:  Solving for T, Initial residual = 0.0434298, Final residual = 3.82787e-05, No Iterations 1
Time = 0.184

DICPCG:  Solving for T, Initial residual = 0.0462403, Final residual = 4.04374e-05, No Iterations 1
Time = 0.185

DICPCG:  Solving for T, Initial residual = 0.048992, Final residual = 4.23912e-05, No Iterations 1
Time = 0.186

DICPCG:  Solving for T, Initial residual = 0.0516794, Final residual = 4.41437e-05, No Iterations 1
Time = 0.187

DICPCG:  Solving for T, Initial residual = 0.0542497, Final residual = 4.56582e-05, No Iterations 1
Time = 0.188

DICPCG:  Solving for T, Initial residual = 0.0566705, Final residual = 4.69067e-05, No Iterations 1
Time = 0.189

DICPCG:  Solving for T, Initial residual = 0.0588982, Final residual = 4.78782e-05, No Iterations 1
Time = 0.19

DICPCG:  Solving for T, Initial residual = 0.0608414, Final residual = 4.85136e-05, No Iterations 1
Time = 0.191

DICPCG:  Solving for T, Initial residual = 0.0623975, Final residual = 4.87554e-05, No Iterations 1
Time = 0.192

DICPCG:  Solving for T, Initial residual = 0.0635349, Final residual = 4.86094e-05, No Iterations 1
Time = 0.193

DICPCG:  Solving for T, Initial residual = 0.0642215, Final residual = 4.80642e-05, No Iterations 1
Time = 0.194

DICPCG:  Solving for T, Initial residual = 0.0643976, Final residual = 4.7117e-05, No Iterations 1
Time = 0.195

DICPCG:  Solving for T, Initial residual = 0.0640811, Final residual = 4.58158e-05, No Iterations 1
Time = 0.196

DICPCG:  Solving for T, Initial residual = 0.0632432, Final residual = 4.4167e-05, No Iterations 1
Time = 0.197

DICPCG:  Solving for T, Initial residual = 0.0618993, Final residual = 4.21978e-05, No Iterations 1
Time = 0.198

DICPCG:  Solving for T, Initial residual = 0.0601174, Final residual = 3.9996e-05, No Iterations 1
Time = 0.199

DICPCG:  Solving for T, Initial residual = 0.0579537, Final residual = 3.7621e-05, No Iterations 1
Time = 0.2

DICPCG:  Solving for T, Initial residual = 0.0554447, Final residual = 3.51126e-05, No Iterations 1
Time = 0.201

DICPCG:  Solving for T, Initial residual = 0.0526823, Final residual = 3.25441e-05, No Iterations 1
Time = 0.202

DICPCG:  Solving for T, Initial residual = 0.0497283, Final residual = 2.99635e-05, No Iterations 1
Time = 0.203

DICPCG:  Solving for T, Initial residual = 0.0466645, Final residual = 2.74198e-05, No Iterations 1
Time = 0.204

DICPCG:  Solving for T, Initial residual = 0.0435449, Final residual = 2.49535e-05, No Iterations 1
Time = 0.205

DICPCG:  Solving for T, Initial residual = 0.0404187, Final residual = 2.25911e-05, No Iterations 1
Time = 0.206

DICPCG:  Solving for T, Initial residual = 0.0373236, Final residual = 2.03499e-05, No Iterations 1
Time = 0.207

DICPCG:  Solving for T, Initial residual = 0.0343388, Final residual = 1.8268e-05, No Iterations 1
Time = 0.208

DICPCG:  Solving for T, Initial residual = 0.0316112, Final residual = 1.64134e-05, No Iterations 1
Time = 0.209

DICPCG:  Solving for T, Initial residual = 0.0291786, Final residual = 1.4792e-05, No Iterations 1
Time = 0.21

DICPCG:  Solving for T, Initial residual = 0.026991, Final residual = 1.33648e-05, No Iterations 1
Time = 0.211

DICPCG:  Solving for T, Initial residual = 0.0250041, Final residual = 1.20988e-05, No Iterations 1
Time = 0.212

DICPCG:  Solving for T, Initial residual = 0.0231828, Final residual = 1.09675e-05, No Iterations 1
Time = 0.213

DICPCG:  Solving for T, Initial residual = 0.0214991, Final residual = 9.95004e-06, No Iterations 1
Time = 0.214

DICPCG:  Solving for T, Initial residual = 0.0199302, Final residual = 9.0293e-06, No Iterations 1
Time = 0.215

DICPCG:  Solving for T, Initial residual = 0.0184577, Final residual = 8.19128e-06, No Iterations 1
Time = 0.216

DICPCG:  Solving for T, Initial residual = 0.0170659, Final residual = 7.42418e-06, No Iterations 1
Time = 0.217

DICPCG:  Solving for T, Initial residual = 0.0157423, Final residual = 6.71816e-06, No Iterations 1
Time = 0.218

DICPCG:  Solving for T, Initial residual = 0.0144771, Final residual = 6.06542e-06, No Iterations 1
Time = 0.219

DICPCG:  Solving for T, Initial residual = 0.0132613, Final residual = 5.45889e-06, No Iterations 1
Time = 0.22

DICPCG:  Solving for T, Initial residual = 0.0120874, Final residual = 4.89245e-06, No Iterations 1
Time = 0.221

DICPCG:  Solving for T, Initial residual = 0.0109491, Final residual = 4.36079e-06, No Iterations 1
Time = 0.222

DICPCG:  Solving for T, Initial residual = 0.00984092, Final residual = 3.85924e-06, No Iterations 1
Time = 0.223

DICPCG:  Solving for T, Initial residual = 0.00875862, Final residual = 3.38366e-06, No Iterations 1
Time = 0.224

DICPCG:  Solving for T, Initial residual = 0.00769774, Final residual = 2.93034e-06, No Iterations 1
Time = 0.225

DICPCG:  Solving for T, Initial residual = 0.0066548, Final residual = 2.49592e-06, No Iterations 1
Time = 0.226

DICPCG:  Solving for T, Initial residual = 0.00562712, Final residual = 2.07734e-06, No Iterations 1
Time = 0.227

DICPCG:  Solving for T, Initial residual = 0.00461323, Final residual = 1.67179e-06, No Iterations 1
Time = 0.228

DICPCG:  Solving for T, Initial residual = 0.00364257, Final residual = 1.27681e-06, No Iterations 1
Time = 0.229

DICPCG:  Solving for T, Initial residual = 0.0027201, Final residual = 8.89917e-07, No Iterations 1
Time = 0.23

DICPCG:  Solving for T, Initial residual = 0.00187785, Final residual = 5.08856e-07, No Iterations 1
Time = 0.231

DICPCG:  Solving for T, Initial residual = 0.00119843, Final residual = 1.32139e-07, No Iterations 1
Time = 0.232

DICPCG:  Solving for T, Initial residual = 0.00108103, Final residual = 2.41977e-07, No Iterations 1
Time = 0.233

DICPCG:  Solving for T, Initial residual = 0.00164547, Final residual = 6.23482e-07, No Iterations 1
Time = 0.234

DICPCG:  Solving for T, Initial residual = 0.00254376, Final residual = 1.00718e-06, No Iterations 1
Time = 0.235

DICPCG:  Solving for T, Initial residual = 0.0034991, Final residual = 1.3958e-06, No Iterations 1
Time = 0.236

DICPCG:  Solving for T, Initial residual = 0.00447501, Final residual = 1.79223e-06, No Iterations 1
Time = 0.237

DICPCG:  Solving for T, Initial residual = 0.00546033, Final residual = 2.19905e-06, No Iterations 1
Time = 0.238

DICPCG:  Solving for T, Initial residual = 0.00645877, Final residual = 2.61895e-06, No Iterations 1
Time = 0.239

DICPCG:  Solving for T, Initial residual = 0.00747584, Final residual = 3.05478e-06, No Iterations 1
Time = 0.24

DICPCG:  Solving for T, Initial residual = 0.00850873, Final residual = 3.50947e-06, No Iterations 1
Time = 0.241

DICPCG:  Solving for T, Initial residual = 0.00956044, Final residual = 3.98627e-06, No Iterations 1
Time = 0.242

DICPCG:  Solving for T, Initial residual = 0.0106344, Final residual = 4.48876e-06, No Iterations 1
Time = 0.243

DICPCG:  Solving for T, Initial residual = 0.0117348, Final residual = 5.02091e-06, No Iterations 1
Time = 0.244

DICPCG:  Solving for T, Initial residual = 0.0128662, Final residual = 5.58712e-06, No Iterations 1
Time = 0.245

DICPCG:  Solving for T, Initial residual = 0.014035, Final residual = 6.19241e-06, No Iterations 1
Time = 0.246

DICPCG:  Solving for T, Initial residual = 0.0152471, Final residual = 6.84254e-06, No Iterations 1
Time = 0.247

DICPCG:  Solving for T, Initial residual = 0.0165106, Final residual = 7.54415e-06, No Iterations 1
Time = 0.248

DICPCG:  Solving for T, Initial residual = 0.0178356, Final residual = 8.30496e-06, No Iterations 1
Time = 0.249

DICPCG:  Solving for T, Initial residual = 0.019232, Final residual = 9.13395e-06, No Iterations 1
Time = 0.25

DICPCG:  Solving for T, Initial residual = 0.0207142, Final residual = 1.00414e-05, No Iterations 1
Time = 0.251

DICPCG:  Solving for T, Initial residual = 0.0222942, Final residual = 1.10389e-05, No Iterations 1
Time = 0.252

DICPCG:  Solving for T, Initial residual = 0.0239927, Final residual = 1.21414e-05, No Iterations 1
Time = 0.253

DICPCG:  Solving for T, Initial residual = 0.0258348, Final residual = 1.33687e-05, No Iterations 1
Time = 0.254

DICPCG:  Solving for T, Initial residual = 0.0278449, Final residual = 1.47408e-05, No Iterations 1
Time = 0.255

DICPCG:  Solving for T, Initial residual = 0.030055, Final residual = 1.62833e-05, No Iterations 1
Time = 0.256

DICPCG:  Solving for T, Initial residual = 0.0324995, Final residual = 1.80263e-05, No Iterations 1
Time = 0.257

DICPCG:  Solving for T, Initial residual = 0.0352146, Final residual = 2.00001e-05, No Iterations 1
Time = 0.258

DICPCG:  Solving for T, Initial residual = 0.0382331, Final residual = 2.22387e-05, No Iterations 1
Time = 0.259

DICPCG:  Solving for T, Initial residual = 0.0415933, Final residual = 2.47805e-05, No Iterations 1
Time = 0.26

DICPCG:  Solving for T, Initial residual = 0.0453362, Final residual = 2.76659e-05, No Iterations 1
Time = 0.261

DICPCG:  Solving for T, Initial residual = 0.0495278, Final residual = 3.09562e-05, No Iterations 1
Time = 0.262

DICPCG:  Solving for T, Initial residual = 0.0539713, Final residual = 3.45491e-05, No Iterations 1
Time = 0.263

DICPCG:  Solving for T, Initial residual = 0.0583526, Final residual = 3.82529e-05, No Iterations 1
Time = 0.264

DICPCG:  Solving for T, Initial residual = 0.0626336, Final residual = 4.20375e-05, No Iterations 1
Time = 0.265

DICPCG:  Solving for T, Initial residual = 0.0667502, Final residual = 4.58565e-05, No Iterations 1
Time = 0.266

DICPCG:  Solving for T, Initial residual = 0.0705746, Final residual = 4.96146e-05, No Iterations 1
Time = 0.267

DICPCG:  Solving for T, Initial residual = 0.0739178, Final residual = 5.31622e-05, No Iterations 1
Time = 0.268

DICPCG:  Solving for T, Initial residual = 0.0766734, Final residual = 5.63975e-05, No Iterations 1
Time = 0.269

DICPCG:  Solving for T, Initial residual = 0.0786508, Final residual = 5.91474e-05, No Iterations 1
Time = 0.27

DICPCG:  Solving for T, Initial residual = 0.0797376, Final residual = 6.12805e-05, No Iterations 1
Time = 0.271

DICPCG:  Solving for T, Initial residual = 0.0798682, Final residual = 6.2702e-05, No Iterations 1
Time = 0.272

DICPCG:  Solving for T, Initial residual = 0.0789802, Final residual = 6.33177e-05, No Iterations 1
Time = 0.273

DICPCG:  Solving for T, Initial residual = 0.0771386, Final residual = 6.31297e-05, No Iterations 1
Time = 0.274

DICPCG:  Solving for T, Initial residual = 0.0744123, Final residual = 6.21482e-05, No Iterations 1
Time = 0.275

DICPCG:  Solving for T, Initial residual = 0.0709592, Final residual = 6.04634e-05, No Iterations 1
Time = 0.276

DICPCG:  Solving for T, Initial residual = 0.0669251, Final residual = 5.81662e-05, No Iterations 1
Time = 0.277

DICPCG:  Solving for T, Initial residual = 0.0624841, Final residual = 5.53825e-05, No Iterations 1
Time = 0.278

DICPCG:  Solving for T, Initial residual = 0.0578208, Final residual = 5.2259e-05, No Iterations 1
Time = 0.279

DICPCG:  Solving for T, Initial residual = 0.0529673, Final residual = 4.88145e-05, No Iterations 1
Time = 0.28

DICPCG:  Solving for T, Initial residual = 0.0481801, Final residual = 4.52798e-05, No Iterations 1
Time = 0.281

DICPCG:  Solving for T, Initial residual = 0.0438176, Final residual = 4.20009e-05, No Iterations 1
Time = 0.282

DICPCG:  Solving for T, Initial residual = 0.039936, Final residual = 3.90551e-05, No Iterations 1
Time = 0.283

DICPCG:  Solving for T, Initial residual = 0.0364885, Final residual = 3.64234e-05, No Iterations 1
Time = 0.284

DICPCG:  Solving for T, Initial residual = 0.0334365, Final residual = 3.40907e-05, No Iterations 1
Time = 0.285

DICPCG:  Solving for T, Initial residual = 0.0307276, Final residual = 3.20254e-05, No Iterations 1
Time = 0.286

DICPCG:  Solving for T, Initial residual = 0.0283064, Final residual = 3.01891e-05, No Iterations 1
Time = 0.287

DICPCG:  Solving for T, Initial residual = 0.026125, Final residual = 2.85478e-05, No Iterations 1
Time = 0.288

DICPCG:  Solving for T, Initial residual = 0.0241436, Final residual = 2.70726e-05, No Iterations 1
Time = 0.289

DICPCG:  Solving for T, Initial residual = 0.0223308, Final residual = 2.5741e-05, No Iterations 1
Time = 0.29

DICPCG:  Solving for T, Initial residual = 0.020659, Final residual = 2.45325e-05, No Iterations 1
Time = 0.291

DICPCG:  Solving for T, Initial residual = 0.0191047, Final residual = 2.3429e-05, No Iterations 1
Time = 0.292

DICPCG:  Solving for T, Initial residual = 0.0176495, Final residual = 2.2417e-05, No Iterations 1
Time = 0.293

DICPCG:  Solving for T, Initial residual = 0.0162791, Final residual = 2.14861e-05, No Iterations 1
Time = 0.294

DICPCG:  Solving for T, Initial residual = 0.014982, Final residual = 2.06283e-05, No Iterations 1
Time = 0.295

DICPCG:  Solving for T, Initial residual = 0.0137474, Final residual = 1.98359e-05, No Iterations 1
Time = 0.296

DICPCG:  Solving for T, Initial residual = 0.0125665, Final residual = 1.91024e-05, No Iterations 1
Time = 0.297

DICPCG:  Solving for T, Initial residual = 0.0114316, Final residual = 1.84229e-05, No Iterations 1
Time = 0.298

DICPCG:  Solving for T, Initial residual = 0.0103363, Final residual = 1.77934e-05, No Iterations 1
Time = 0.299

DICPCG:  Solving for T, Initial residual = 0.00927488, Final residual = 1.72115e-05, No Iterations 1
Time = 0.3

DICPCG:  Solving for T, Initial residual = 0.00824251, Final residual = 1.66763e-05, No Iterations 1
Time = 0.301

DICPCG:  Solving for T, Initial residual = 0.0072349, Final residual = 1.61892e-05, No Iterations 1
Time = 0.302

DICPCG:  Solving for T, Initial residual = 0.00624829, Final residual = 1.57552e-05, No Iterations 1
Time = 0.303

DICPCG:  Solving for T, Initial residual = 0.00527931, Final residual = 1.53849e-05, No Iterations 1
Time = 0.304

DICPCG:  Solving for T, Initial residual = 0.00432497, Final residual = 1.51001e-05, No Iterations 1
Time = 0.305

DICPCG:  Solving for T, Initial residual = 0.00338256, Final residual = 1.49454e-05, No Iterations 1
Time = 0.306

DICPCG:  Solving for T, Initial residual = 0.00244964, Final residual = 1.50183e-05, No Iterations 1
Time = 0.307

DICPCG:  Solving for T, Initial residual = 0.00152779, Final residual = 1.55514e-05, No Iterations 1
Time = 0.308

DICPCG:  Solving for T, Initial residual = 0.000740489, Final residual = 1.77482e-05, No Iterations 1
Time = 0.309

DICPCG:  Solving for T, Initial residual = 0.000603037, Final residual = 2.27414e-05, No Iterations 1
Time = 0.31

DICPCG:  Solving for T, Initial residual = 0.00133553, Final residual = 1.50032e-05, No Iterations 1
Time = 0.311

DICPCG:  Solving for T, Initial residual = 0.00223886, Final residual = 1.17856e-05, No Iterations 1
Time = 0.312

DICPCG:  Solving for T, Initial residual = 0.00316407, Final residual = 1.00016e-05, No Iterations 1
Time = 0.313

DICPCG:  Solving for T, Initial residual = 0.0040977, Final residual = 8.71992e-06, No Iterations 1
Time = 0.314

DICPCG:  Solving for T, Initial residual = 0.00504013, Final residual = 7.66737e-06, No Iterations 1
Time = 0.315

DICPCG:  Solving for T, Initial residual = 0.00599426, Final residual = 8.82267e-06, No Iterations 1
Time = 0.316

DICPCG:  Solving for T, Initial residual = 0.0069631, Final residual = 1.03997e-05, No Iterations 1
Time = 0.317

DICPCG:  Solving for T, Initial residual = 0.00794993, Final residual = 1.18895e-05, No Iterations 1
Time = 0.318

DICPCG:  Solving for T, Initial residual = 0.00895837, Final residual = 1.33023e-05, No Iterations 1
Time = 0.319

DICPCG:  Solving for T, Initial residual = 0.00999561, Final residual = 1.46429e-05, No Iterations 1
Time = 0.32

DICPCG:  Solving for T, Initial residual = 0.0110633, Final residual = 1.59133e-05, No Iterations 1
Time = 0.321

DICPCG:  Solving for T, Initial residual = 0.0121663, Final residual = 1.7115e-05, No Iterations 1
Time = 0.322

DICPCG:  Solving for T, Initial residual = 0.0133106, Final residual = 1.82493e-05, No Iterations 1
Time = 0.323

DICPCG:  Solving for T, Initial residual = 0.0145032, Final residual = 1.93177e-05, No Iterations 1
Time = 0.324

DICPCG:  Solving for T, Initial residual = 0.0157521, Final residual = 2.03226e-05, No Iterations 1
Time = 0.325

DICPCG:  Solving for T, Initial residual = 0.0170669, Final residual = 2.12667e-05, No Iterations 1
Time = 0.326

DICPCG:  Solving for T, Initial residual = 0.0184591, Final residual = 2.21538e-05, No Iterations 1
Time = 0.327

DICPCG:  Solving for T, Initial residual = 0.0199419, Final residual = 2.29885e-05, No Iterations 1
Time = 0.328

DICPCG:  Solving for T, Initial residual = 0.0215301, Final residual = 2.37758e-05, No Iterations 1
Time = 0.329

DICPCG:  Solving for T, Initial residual = 0.0232435, Final residual = 2.45233e-05, No Iterations 1
Time = 0.33

DICPCG:  Solving for T, Initial residual = 0.0251068, Final residual = 2.52414e-05, No Iterations 1
Time = 0.331

DICPCG:  Solving for T, Initial residual = 0.0271497, Final residual = 2.59418e-05, No Iterations 1
Time = 0.332

DICPCG:  Solving for T, Initial residual = 0.0294097, Final residual = 2.66387e-05, No Iterations 1
Time = 0.333

DICPCG:  Solving for T, Initial residual = 0.0319345, Final residual = 2.73498e-05, No Iterations 1
Time = 0.334

DICPCG:  Solving for T, Initial residual = 0.0347859, Final residual = 2.80971e-05, No Iterations 1
Time = 0.335

DICPCG:  Solving for T, Initial residual = 0.0380387, Final residual = 2.89039e-05, No Iterations 1
Time = 0.336

DICPCG:  Solving for T, Initial residual = 0.0417929, Final residual = 2.98007e-05, No Iterations 1
Time = 0.337

DICPCG:  Solving for T, Initial residual = 0.0461682, Final residual = 3.08176e-05, No Iterations 1
Time = 0.338

DICPCG:  Solving for T, Initial residual = 0.0512701, Final residual = 3.19601e-05, No Iterations 1
Time = 0.339

DICPCG:  Solving for T, Initial residual = 0.0571387, Final residual = 3.31851e-05, No Iterations 1
Time = 0.34

DICPCG:  Solving for T, Initial residual = 0.0634902, Final residual = 3.42764e-05, No Iterations 1
Time = 0.341

DICPCG:  Solving for T, Initial residual = 0.0699753, Final residual = 3.50385e-05, No Iterations 1
Time = 0.342

DICPCG:  Solving for T, Initial residual = 0.0764629, Final residual = 3.54352e-05, No Iterations 1
Time = 0.343

DICPCG:  Solving for T, Initial residual = 0.0827257, Final residual = 3.54092e-05, No Iterations 1
Time = 0.344

DICPCG:  Solving for T, Initial residual = 0.0884712, Final residual = 3.49072e-05, No Iterations 1
Time = 0.345

DICPCG:  Solving for T, Initial residual = 0.0933167, Final residual = 3.38755e-05, No Iterations 1
Time = 0.346

DICPCG:  Solving for T, Initial residual = 0.0968316, Final residual = 3.22856e-05, No Iterations 1
Time = 0.347

DICPCG:  Solving for T, Initial residual = 0.0987157, Final residual = 3.01826e-05, No Iterations 1
Time = 0.348

DICPCG:  Solving for T, Initial residual = 0.0988221, Final residual = 2.76682e-05, No Iterations 1
Time = 0.349

DICPCG:  Solving for T, Initial residual = 0.0970286, Final residual = 2.48447e-05, No Iterations 1
Time = 0.35

DICPCG:  Solving for T, Initial residual = 0.0934664, Final residual = 2.18638e-05, No Iterations 1
Time = 0.351

DICPCG:  Solving for T, Initial residual = 0.0884991, Final residual = 1.88956e-05, No Iterations 1
Time = 0.352

DICPCG:  Solving for T, Initial residual = 0.0825067, Final residual = 1.60684e-05, No Iterations 1
Time = 0.353

DICPCG:  Solving for T, Initial residual = 0.0758816, Final residual = 1.34739e-05, No Iterations 1
Time = 0.354

DICPCG:  Solving for T, Initial residual = 0.0689855, Final residual = 1.11663e-05, No Iterations 1
Time = 0.355

DICPCG:  Solving for T, Initial residual = 0.0621191, Final residual = 9.16662e-06, No Iterations 1
Time = 0.356

DICPCG:  Solving for T, Initial residual = 0.0554905, Final residual = 7.468e-06, No Iterations 1
Time = 0.357

DICPCG:  Solving for T, Initial residual = 0.0494717, Final residual = 6.58773e-06, No Iterations 1
Time = 0.358

DICPCG:  Solving for T, Initial residual = 0.0443497, Final residual = 5.84195e-06, No Iterations 1
Time = 0.359

DICPCG:  Solving for T, Initial residual = 0.0400437, Final residual = 5.21583e-06, No Iterations 1
Time = 0.36

DICPCG:  Solving for T, Initial residual = 0.0363727, Final residual = 4.68366e-06, No Iterations 1
Time = 0.361

DICPCG:  Solving for T, Initial residual = 0.0331971, Final residual = 4.22556e-06, No Iterations 1
Time = 0.362

DICPCG:  Solving for T, Initial residual = 0.0304132, Final residual = 3.82671e-06, No Iterations 1
Time = 0.363

DICPCG:  Solving for T, Initial residual = 0.0279439, Final residual = 3.47604e-06, No Iterations 1
Time = 0.364

DICPCG:  Solving for T, Initial residual = 0.0257306, Final residual = 3.16505e-06, No Iterations 1
Time = 0.365

DICPCG:  Solving for T, Initial residual = 0.023728, Final residual = 2.88712e-06, No Iterations 1
Time = 0.366

DICPCG:  Solving for T, Initial residual = 0.0219003, Final residual = 2.63701e-06, No Iterations 1
Time = 0.367

DICPCG:  Solving for T, Initial residual = 0.0202192, Final residual = 2.4105e-06, No Iterations 1
Time = 0.368

DICPCG:  Solving for T, Initial residual = 0.0186617, Final residual = 2.20414e-06, No Iterations 1
Time = 0.369

DICPCG:  Solving for T, Initial residual = 0.017209, Final residual = 2.0151e-06, No Iterations 1
Time = 0.37

DICPCG:  Solving for T, Initial residual = 0.0158458, Final residual = 1.841e-06, No Iterations 1
Time = 0.371

DICPCG:  Solving for T, Initial residual = 0.0145591, Final residual = 1.67986e-06, No Iterations 1
Time = 0.372

DICPCG:  Solving for T, Initial residual = 0.0133381, Final residual = 1.52997e-06, No Iterations 1
Time = 0.373

DICPCG:  Solving for T, Initial residual = 0.0121737, Final residual = 1.38988e-06, No Iterations 1
Time = 0.374

DICPCG:  Solving for T, Initial residual = 0.011058, Final residual = 1.25832e-06, No Iterations 1
Time = 0.375

DICPCG:  Solving for T, Initial residual = 0.00998427, Final residual = 1.1342e-06, No Iterations 1
Time = 0.376

DICPCG:  Solving for T, Initial residual = 0.00894669, Final residual = 1.01653e-06, No Iterations 1
Time = 0.377

DICPCG:  Solving for T, Initial residual = 0.00794014, Final residual = 9.0447e-07, No Iterations 1
Time = 0.378

DICPCG:  Solving for T, Initial residual = 0.00696008, Final residual = 7.97232e-07, No Iterations 1
Time = 0.379

DICPCG:  Solving for T, Initial residual = 0.00600252, Final residual = 6.94118e-07, No Iterations 1
Time = 0.38

DICPCG:  Solving for T, Initial residual = 0.00506383, Final residual = 5.94489e-07, No Iterations 1
Time = 0.381

DICPCG:  Solving for T, Initial residual = 0.00414074, Final residual = 4.97756e-07, No Iterations 1
Time = 0.382

DICPCG:  Solving for T, Initial residual = 0.00323069, Final residual = 4.03365e-07, No Iterations 1
Time = 0.383

DICPCG:  Solving for T, Initial residual = 0.0023321, Final residual = 3.10793e-07, No Iterations 1
Time = 0.384

DICPCG:  Solving for T, Initial residual = 0.00144813, Final residual = 2.19523e-07, No Iterations 1
Time = 0.385

DICPCG:  Solving for T, Initial residual = 0.000698384, Final residual = 1.29103e-07, No Iterations 1
Time = 0.386

DICPCG:  Solving for T, Initial residual = 0.000520929, Final residual = 5.23621e-08, No Iterations 1
Time = 0.387

DICPCG:  Solving for T, Initial residual = 0.00124005, Final residual = 9.20692e-08, No Iterations 1
Time = 0.388

DICPCG:  Solving for T, Initial residual = 0.0021212, Final residual = 1.41104e-07, No Iterations 1
Time = 0.389

DICPCG:  Solving for T, Initial residual = 0.00301297, Final residual = 2.32585e-07, No Iterations 1
Time = 0.39

DICPCG:  Solving for T, Initial residual = 0.00391388, Final residual = 3.2553e-07, No Iterations 1
Time = 0.391

DICPCG:  Solving for T, Initial residual = 0.00482683, Final residual = 4.20426e-07, No Iterations 1
Time = 0.392

DICPCG:  Solving for T, Initial residual = 0.00575304, Final residual = 5.17792e-07, No Iterations 1
Time = 0.393

DICPCG:  Solving for T, Initial residual = 0.00669558, Final residual = 6.18178e-07, No Iterations 1
Time = 0.394

DICPCG:  Solving for T, Initial residual = 0.00765784, Final residual = 7.22179e-07, No Iterations 1
Time = 0.395

DICPCG:  Solving for T, Initial residual = 0.00864352, Final residual = 8.30437e-07, No Iterations 1
Time = 0.396

DICPCG:  Solving for T, Initial residual = 0.00965677, Final residual = 9.43659e-07, No Iterations 1
Time = 0.397

DICPCG:  Solving for T, Initial residual = 0.0107022, Final residual = 1.06263e-06, No Iterations 1
Time = 0.398

DICPCG:  Solving for T, Initial residual = 0.0117852, Final residual = 1.18822e-06, No Iterations 1
Time = 0.399

DICPCG:  Solving for T, Initial residual = 0.0129118, Final residual = 1.32142e-06, No Iterations 1
Time = 0.4

DICPCG:  Solving for T, Initial residual = 0.0140888, Final residual = 1.46335e-06, No Iterations 1
Time = 0.401

DICPCG:  Solving for T, Initial residual = 0.0153245, Final residual = 1.61531e-06, No Iterations 1
Time = 0.402

DICPCG:  Solving for T, Initial residual = 0.0166282, Final residual = 1.77879e-06, No Iterations 1
Time = 0.403

DICPCG:  Solving for T, Initial residual = 0.0180112, Final residual = 1.95553e-06, No Iterations 1
Time = 0.404

DICPCG:  Solving for T, Initial residual = 0.0194868, Final residual = 2.14761e-06, No Iterations 1
Time = 0.405

DICPCG:  Solving for T, Initial residual = 0.021071, Final residual = 2.35749e-06, No Iterations 1
Time = 0.406

DICPCG:  Solving for T, Initial residual = 0.0227831, Final residual = 2.60503e-06, No Iterations 1
Time = 0.407

DICPCG:  Solving for T, Initial residual = 0.0246469, Final residual = 3.00345e-06, No Iterations 1
Time = 0.408

DICPCG:  Solving for T, Initial residual = 0.026692, Final residual = 3.46932e-06, No Iterations 1
Time = 0.409

DICPCG:  Solving for T, Initial residual = 0.0289554, Final residual = 4.01671e-06, No Iterations 1
Time = 0.41

DICPCG:  Solving for T, Initial residual = 0.031483, Final residual = 4.66332e-06, No Iterations 1
Time = 0.411

DICPCG:  Solving for T, Initial residual = 0.0343356, Final residual = 5.43217e-06, No Iterations 1
Time = 0.412

DICPCG:  Solving for T, Initial residual = 0.037594, Final residual = 6.35365e-06, No Iterations 1
Time = 0.413

DICPCG:  Solving for T, Initial residual = 0.0413672, Final residual = 7.46864e-06, No Iterations 1
Time = 0.414

DICPCG:  Solving for T, Initial residual = 0.0458047, Final residual = 8.83328e-06, No Iterations 1
Time = 0.415

DICPCG:  Solving for T, Initial residual = 0.0511079, Final residual = 1.05249e-05, No Iterations 1
Time = 0.416

DICPCG:  Solving for T, Initial residual = 0.0575342, Final residual = 1.26477e-05, No Iterations 1
Time = 0.417

DICPCG:  Solving for T, Initial residual = 0.0653299, Final residual = 1.53231e-05, No Iterations 1
Time = 0.418

DICPCG:  Solving for T, Initial residual = 0.0743657, Final residual = 1.85993e-05, No Iterations 1
Time = 0.419

DICPCG:  Solving for T, Initial residual = 0.084028, Final residual = 2.23942e-05, No Iterations 1
Time = 0.42

DICPCG:  Solving for T, Initial residual = 0.0937999, Final residual = 2.66173e-05, No Iterations 1
Time = 0.421

DICPCG:  Solving for T, Initial residual = 0.103187, Final residual = 3.11498e-05, No Iterations 1
Time = 0.422

DICPCG:  Solving for T, Initial residual = 0.111449, Final residual = 3.57571e-05, No Iterations 1
Time = 0.423

DICPCG:  Solving for T, Initial residual = 0.117692, Final residual = 4.00907e-05, No Iterations 1
Time = 0.424

DICPCG:  Solving for T, Initial residual = 0.121069, Final residual = 4.3738e-05, No Iterations 1
Time = 0.425

DICPCG:  Solving for T, Initial residual = 0.121071, Final residual = 4.63336e-05, No Iterations 1
Time = 0.426

DICPCG:  Solving for T, Initial residual = 0.117668, Final residual = 4.76441e-05, No Iterations 1
Time = 0.427

DICPCG:  Solving for T, Initial residual = 0.111322, Final residual = 4.76288e-05, No Iterations 1
Time = 0.428

DICPCG:  Solving for T, Initial residual = 0.102833, Final residual = 4.64283e-05, No Iterations 1
Time = 0.429

DICPCG:  Solving for T, Initial residual = 0.0930729, Final residual = 4.42836e-05, No Iterations 1
Time = 0.43

DICPCG:  Solving for T, Initial residual = 0.0828596, Final residual = 4.14879e-05, No Iterations 1
Time = 0.431

DICPCG:  Solving for T, Initial residual = 0.0727527, Final residual = 3.82793e-05, No Iterations 1
Time = 0.432

DICPCG:  Solving for T, Initial residual = 0.0635284, Final residual = 3.50736e-05, No Iterations 1
Time = 0.433

DICPCG:  Solving for T, Initial residual = 0.0557946, Final residual = 3.22742e-05, No Iterations 1
Time = 0.434

DICPCG:  Solving for T, Initial residual = 0.0494806, Final residual = 2.99426e-05, No Iterations 1
Time = 0.435

DICPCG:  Solving for T, Initial residual = 0.044284, Final residual = 2.79917e-05, No Iterations 1
Time = 0.436

DICPCG:  Solving for T, Initial residual = 0.0399328, Final residual = 2.63251e-05, No Iterations 1
Time = 0.437

DICPCG:  Solving for T, Initial residual = 0.0362262, Final residual = 2.48682e-05, No Iterations 1
Time = 0.438

DICPCG:  Solving for T, Initial residual = 0.0330191, Final residual = 2.35662e-05, No Iterations 1
Time = 0.439

DICPCG:  Solving for T, Initial residual = 0.0302091, Final residual = 2.23812e-05, No Iterations 1
Time = 0.44

DICPCG:  Solving for T, Initial residual = 0.0277189, Final residual = 2.12844e-05, No Iterations 1
Time = 0.441

DICPCG:  Solving for T, Initial residual = 0.0254891, Final residual = 2.02535e-05, No Iterations 1
Time = 0.442

DICPCG:  Solving for T, Initial residual = 0.023474, Final residual = 1.92714e-05, No Iterations 1
Time = 0.443

DICPCG:  Solving for T, Initial residual = 0.0216374, Final residual = 1.83246e-05, No Iterations 1
Time = 0.444

DICPCG:  Solving for T, Initial residual = 0.0199506, Final residual = 1.74025e-05, No Iterations 1
Time = 0.445

DICPCG:  Solving for T, Initial residual = 0.0183904, Final residual = 1.64969e-05, No Iterations 1
Time = 0.446

DICPCG:  Solving for T, Initial residual = 0.0169377, Final residual = 1.56011e-05, No Iterations 1
Time = 0.447

DICPCG:  Solving for T, Initial residual = 0.0155771, Final residual = 1.471e-05, No Iterations 1
Time = 0.448

DICPCG:  Solving for T, Initial residual = 0.0142953, Final residual = 1.38195e-05, No Iterations 1
Time = 0.449

DICPCG:  Solving for T, Initial residual = 0.0130815, Final residual = 1.29263e-05, No Iterations 1
Time = 0.45

DICPCG:  Solving for T, Initial residual = 0.0119264, Final residual = 1.2028e-05, No Iterations 1
Time = 0.451

DICPCG:  Solving for T, Initial residual = 0.0108219, Final residual = 1.11228e-05, No Iterations 1
Time = 0.452

DICPCG:  Solving for T, Initial residual = 0.0097617, Final residual = 1.02094e-05, No Iterations 1
Time = 0.453

DICPCG:  Solving for T, Initial residual = 0.00873949, Final residual = 9.28687e-06, No Iterations 1
Time = 0.454

DICPCG:  Solving for T, Initial residual = 0.00774983, Final residual = 8.35462e-06, No Iterations 1
Time = 0.455

DICPCG:  Solving for T, Initial residual = 0.00678804, Final residual = 7.41221e-06, No Iterations 1
Time = 0.456

DICPCG:  Solving for T, Initial residual = 0.00584999, Final residual = 6.45926e-06, No Iterations 1
Time = 0.457

DICPCG:  Solving for T, Initial residual = 0.00493194, Final residual = 5.49516e-06, No Iterations 1
Time = 0.458

DICPCG:  Solving for T, Initial residual = 0.00403042, Final residual = 4.51855e-06, No Iterations 1
Time = 0.459

DICPCG:  Solving for T, Initial residual = 0.00314228, Final residual = 3.52622e-06, No Iterations 1
Time = 0.46

DICPCG:  Solving for T, Initial residual = 0.00226458, Final residual = 2.94206e-06, No Iterations 1
Time = 0.461

DICPCG:  Solving for T, Initial residual = 0.00139539, Final residual = 2.99201e-06, No Iterations 1
Time = 0.462

DICPCG:  Solving for T, Initial residual = 0.000658008, Final residual = 3.23866e-06, No Iterations 1
Time = 0.463

DICPCG:  Solving for T, Initial residual = 0.000453902, Final residual = 3.68024e-06, No Iterations 1
Time = 0.464

DICPCG:  Solving for T, Initial residual = 0.00121438, Final residual = 2.80037e-06, No Iterations 1
Time = 0.465

DICPCG:  Solving for T, Initial residual = 0.0020798, Final residual = 2.42136e-06, No Iterations 1
Time = 0.466

DICPCG:  Solving for T, Initial residual = 0.00295069, Final residual = 2.92982e-06, No Iterations 1
Time = 0.467

DICPCG:  Solving for T, Initial residual = 0.00382957, Final residual = 3.94012e-06, No Iterations 1
Time = 0.468

DICPCG:  Solving for T, Initial residual = 0.00471954, Final residual = 4.92775e-06, No Iterations 1
Time = 0.469

DICPCG:  Solving for T, Initial residual = 0.00562463, Final residual = 5.89988e-06, No Iterations 1
Time = 0.47

DICPCG:  Solving for T, Initial residual = 0.00654674, Final residual = 6.85948e-06, No Iterations 1
Time = 0.471

DICPCG:  Solving for T, Initial residual = 0.00748933, Final residual = 7.80793e-06, No Iterations 1
Time = 0.472

DICPCG:  Solving for T, Initial residual = 0.00845621, Final residual = 8.74594e-06, No Iterations 1
Time = 0.473

DICPCG:  Solving for T, Initial residual = 0.00945159, Final residual = 9.67401e-06, No Iterations 1
Time = 0.474

DICPCG:  Solving for T, Initial residual = 0.0104802, Final residual = 1.05927e-05, No Iterations 1
Time = 0.475

DICPCG:  Solving for T, Initial residual = 0.0115474, Final residual = 1.15027e-05, No Iterations 1
Time = 0.476

DICPCG:  Solving for T, Initial residual = 0.0126592, Final residual = 1.24053e-05, No Iterations 1
Time = 0.477

DICPCG:  Solving for T, Initial residual = 0.0138226, Final residual = 1.33019e-05, No Iterations 1
Time = 0.478

DICPCG:  Solving for T, Initial residual = 0.0150457, Final residual = 1.41948e-05, No Iterations 1
Time = 0.479

DICPCG:  Solving for T, Initial residual = 0.016338, Final residual = 1.50866e-05, No Iterations 1
Time = 0.48

DICPCG:  Solving for T, Initial residual = 0.0177105, Final residual = 1.5981e-05, No Iterations 1
Time = 0.481

DICPCG:  Solving for T, Initial residual = 0.0191764, Final residual = 1.68823e-05, No Iterations 1
Time = 0.482

DICPCG:  Solving for T, Initial residual = 0.0207517, Final residual = 1.77963e-05, No Iterations 1
Time = 0.483

DICPCG:  Solving for T, Initial residual = 0.0224555, Final residual = 1.87301e-05, No Iterations 1
Time = 0.484

DICPCG:  Solving for T, Initial residual = 0.0243114, Final residual = 1.96925e-05, No Iterations 1
Time = 0.485

DICPCG:  Solving for T, Initial residual = 0.0263484, Final residual = 2.0695e-05, No Iterations 1
Time = 0.486

DICPCG:  Solving for T, Initial residual = 0.0286032, Final residual = 2.17517e-05, No Iterations 1
Time = 0.487

DICPCG:  Solving for T, Initial residual = 0.0311224, Final residual = 2.28809e-05, No Iterations 1
Time = 0.488

DICPCG:  Solving for T, Initial residual = 0.0339664, Final residual = 2.41065e-05, No Iterations 1
Time = 0.489

DICPCG:  Solving for T, Initial residual = 0.0372146, Final residual = 2.54597e-05, No Iterations 1
Time = 0.49

DICPCG:  Solving for T, Initial residual = 0.0409742, Final residual = 2.69826e-05, No Iterations 1
Time = 0.491

DICPCG:  Solving for T, Initial residual = 0.045393, Final residual = 2.87333e-05, No Iterations 1
Time = 0.492

DICPCG:  Solving for T, Initial residual = 0.0506802, Final residual = 3.07933e-05, No Iterations 1
Time = 0.493

DICPCG:  Solving for T, Initial residual = 0.0571391, Final residual = 3.32801e-05, No Iterations 1
Time = 0.494

DICPCG:  Solving for T, Initial residual = 0.0652386, Final residual = 3.63759e-05, No Iterations 1
Time = 0.495

DICPCG:  Solving for T, Initial residual = 0.0755922, Final residual = 4.0298e-05, No Iterations 1
Time = 0.496

DICPCG:  Solving for T, Initial residual = 0.0881856, Final residual = 4.48905e-05, No Iterations 1
Time = 0.497

DICPCG:  Solving for T, Initial residual = 0.102101, Final residual = 4.95692e-05, No Iterations 1
Time = 0.498

DICPCG:  Solving for T, Initial residual = 0.116387, Final residual = 5.38269e-05, No Iterations 1
Time = 0.499

DICPCG:  Solving for T, Initial residual = 0.129773, Final residual = 5.71095e-05, No Iterations 1
Time = 0.5

DICPCG:  Solving for T, Initial residual = 0.140466, Final residual = 5.87565e-05, No Iterations 1
Time = 0.501

DICPCG:  Solving for T, Initial residual = 0.146541, Final residual = 5.8206e-05, No Iterations 1
Time = 0.502

DICPCG:  Solving for T, Initial residual = 0.146672, Final residual = 5.52665e-05, No Iterations 1
Time = 0.503

DICPCG:  Solving for T, Initial residual = 0.140783, Final residual = 5.02784e-05, No Iterations 1
Time = 0.504

DICPCG:  Solving for T, Initial residual = 0.130094, Final residual = 4.39998e-05, No Iterations 1
Time = 0.505

DICPCG:  Solving for T, Initial residual = 0.116456, Final residual = 3.72729e-05, No Iterations 1
Time = 0.506

DICPCG:  Solving for T, Initial residual = 0.101766, Final residual = 3.0802e-05, No Iterations 1
Time = 0.507

DICPCG:  Solving for T, Initial residual = 0.0874695, Final residual = 2.5022e-05, No Iterations 1
Time = 0.508

DICPCG:  Solving for T, Initial residual = 0.0746367, Final residual = 2.01693e-05, No Iterations 1
Time = 0.509

DICPCG:  Solving for T, Initial residual = 0.0642181, Final residual = 1.63866e-05, No Iterations 1
Time = 0.51

DICPCG:  Solving for T, Initial residual = 0.0561286, Final residual = 1.35199e-05, No Iterations 1
Time = 0.511

DICPCG:  Solving for T, Initial residual = 0.0496824, Final residual = 1.12943e-05, No Iterations 1
Time = 0.512

DICPCG:  Solving for T, Initial residual = 0.0444099, Final residual = 9.52698e-06, No Iterations 1
Time = 0.513

DICPCG:  Solving for T, Initial residual = 0.040004, Final residual = 8.0984e-06, No Iterations 1
Time = 0.514

DICPCG:  Solving for T, Initial residual = 0.0362557, Final residual = 6.92693e-06, No Iterations 1
Time = 0.515

DICPCG:  Solving for T, Initial residual = 0.0330177, Final residual = 5.95496e-06, No Iterations 1
Time = 0.516

DICPCG:  Solving for T, Initial residual = 0.0301833, Final residual = 5.1406e-06, No Iterations 1
Time = 0.517

DICPCG:  Solving for T, Initial residual = 0.0276732, Final residual = 4.45267e-06, No Iterations 1
Time = 0.518

DICPCG:  Solving for T, Initial residual = 0.0254275, Final residual = 3.86741e-06, No Iterations 1
Time = 0.519

DICPCG:  Solving for T, Initial residual = 0.0233995, Final residual = 3.36643e-06, No Iterations 1
Time = 0.52

DICPCG:  Solving for T, Initial residual = 0.0215528, Final residual = 2.93524e-06, No Iterations 1
Time = 0.521

DICPCG:  Solving for T, Initial residual = 0.0198583, Final residual = 2.56226e-06, No Iterations 1
Time = 0.522

DICPCG:  Solving for T, Initial residual = 0.0182926, Final residual = 2.23813e-06, No Iterations 1
Time = 0.523

DICPCG:  Solving for T, Initial residual = 0.0168366, Final residual = 1.95518e-06, No Iterations 1
Time = 0.524

DICPCG:  Solving for T, Initial residual = 0.0154743, Final residual = 1.7071e-06, No Iterations 1
Time = 0.525

DICPCG:  Solving for T, Initial residual = 0.0141926, Final residual = 1.48859e-06, No Iterations 1
Time = 0.526

DICPCG:  Solving for T, Initial residual = 0.0129804, Final residual = 1.29521e-06, No Iterations 1
Time = 0.527

DICPCG:  Solving for T, Initial residual = 0.0118283, Final residual = 1.12321e-06, No Iterations 1
Time = 0.528

DICPCG:  Solving for T, Initial residual = 0.010728, Final residual = 9.6936e-07, No Iterations 1
Time = 0.529

DICPCG:  Solving for T, Initial residual = 0.00967278, Final residual = 8.30885e-07, No Iterations 1
Time = 0.53

DICPCG:  Solving for T, Initial residual = 0.00865645, Final residual = 7.05381e-07, No Iterations 1
Time = 0.531

DICPCG:  Solving for T, Initial residual = 0.00767361, Final residual = 5.90742e-07, No Iterations 1
Time = 0.532

DICPCG:  Solving for T, Initial residual = 0.00671951, Final residual = 4.85113e-07, No Iterations 1
Time = 0.533

DICPCG:  Solving for T, Initial residual = 0.00578989, Final residual = 3.86843e-07, No Iterations 1
Time = 0.534

DICPCG:  Solving for T, Initial residual = 0.00488089, Final residual = 2.9445e-07, No Iterations 1
Time = 0.535

DICPCG:  Solving for T, Initial residual = 0.003989, Final residual = 2.06594e-07, No Iterations 1
Time = 0.536

DICPCG:  Solving for T, Initial residual = 0.00311098, Final residual = 1.22056e-07, No Iterations 1
Time = 0.537

DICPCG:  Solving for T, Initial residual = 0.00224377, Final residual = 9.59707e-08, No Iterations 1
Time = 0.538

DICPCG:  Solving for T, Initial residual = 0.00138526, Final residual = 7.45929e-08, No Iterations 1
Time = 0.539

DICPCG:  Solving for T, Initial residual = 0.000653642, Final residual = 1.23324e-07, No Iterations 1
Time = 0.54

DICPCG:  Solving for T, Initial residual = 0.000432222, Final residual = 2.11995e-07, No Iterations 1
Time = 0.541

DICPCG:  Solving for T, Initial residual = 0.00117438, Final residual = 2.94807e-07, No Iterations 1
Time = 0.542

DICPCG:  Solving for T, Initial residual = 0.00202786, Final residual = 3.81993e-07, No Iterations 1
Time = 0.543

DICPCG:  Solving for T, Initial residual = 0.00288783, Final residual = 4.73859e-07, No Iterations 1
Time = 0.544

DICPCG:  Solving for T, Initial residual = 0.00375602, Final residual = 5.71205e-07, No Iterations 1
Time = 0.545

DICPCG:  Solving for T, Initial residual = 0.0046353, Final residual = 6.75093e-07, No Iterations 1
Time = 0.546

DICPCG:  Solving for T, Initial residual = 0.00552872, Final residual = 7.86721e-07, No Iterations 1
Time = 0.547

DICPCG:  Solving for T, Initial residual = 0.00643951, Final residual = 9.07405e-07, No Iterations 1
Time = 0.548

DICPCG:  Solving for T, Initial residual = 0.00737119, Final residual = 1.0386e-06, No Iterations 1
Time = 0.549

DICPCG:  Solving for T, Initial residual = 0.00832762, Final residual = 1.1819e-06, No Iterations 1
Time = 0.55

DICPCG:  Solving for T, Initial residual = 0.00931304, Final residual = 1.3391e-06, No Iterations 1
Time = 0.551

DICPCG:  Solving for T, Initial residual = 0.0103322, Final residual = 1.5122e-06, No Iterations 1
Time = 0.552

DICPCG:  Solving for T, Initial residual = 0.0113904, Final residual = 1.70347e-06, No Iterations 1
Time = 0.553

DICPCG:  Solving for T, Initial residual = 0.0124939, Final residual = 1.91551e-06, No Iterations 1
Time = 0.554

DICPCG:  Solving for T, Initial residual = 0.0136494, Final residual = 2.15127e-06, No Iterations 1
Time = 0.555

DICPCG:  Solving for T, Initial residual = 0.0148651, Final residual = 2.41419e-06, No Iterations 1
Time = 0.556

DICPCG:  Solving for T, Initial residual = 0.0161504, Final residual = 2.70827e-06, No Iterations 1
Time = 0.557

DICPCG:  Solving for T, Initial residual = 0.0175164, Final residual = 3.03819e-06, No Iterations 1
Time = 0.558

DICPCG:  Solving for T, Initial residual = 0.0189761, Final residual = 3.40952e-06, No Iterations 1
Time = 0.559

DICPCG:  Solving for T, Initial residual = 0.0205453, Final residual = 3.82889e-06, No Iterations 1
Time = 0.56

DICPCG:  Solving for T, Initial residual = 0.022243, Final residual = 4.30431e-06, No Iterations 1
Time = 0.561

DICPCG:  Solving for T, Initial residual = 0.0240925, Final residual = 4.84554e-06, No Iterations 1
Time = 0.562

DICPCG:  Solving for T, Initial residual = 0.0261228, Final residual = 5.46463e-06, No Iterations 1
Time = 0.563

DICPCG:  Solving for T, Initial residual = 0.0283698, Final residual = 6.17662e-06, No Iterations 1
Time = 0.564

DICPCG:  Solving for T, Initial residual = 0.0308798, Final residual = 7.00061e-06, No Iterations 1
Time = 0.565

DICPCG:  Solving for T, Initial residual = 0.0337124, Final residual = 7.96121e-06, No Iterations 1
Time = 0.566

DICPCG:  Solving for T, Initial residual = 0.0369459, Final residual = 9.09075e-06, No Iterations 1
Time = 0.567

DICPCG:  Solving for T, Initial residual = 0.0406861, Final residual = 1.04326e-05, No Iterations 1
Time = 0.568

DICPCG:  Solving for T, Initial residual = 0.0450785, Final residual = 1.20464e-05, No Iterations 1
Time = 0.569

DICPCG:  Solving for T, Initial residual = 0.0503296, Final residual = 1.40166e-05, No Iterations 1
Time = 0.57

DICPCG:  Solving for T, Initial residual = 0.0567426, Final residual = 1.64671e-05, No Iterations 1
Time = 0.571

DICPCG:  Solving for T, Initial residual = 0.0647813, Final residual = 1.95869e-05, No Iterations 1
Time = 0.572

DICPCG:  Solving for T, Initial residual = 0.0751875, Final residual = 2.36788e-05, No Iterations 1
Time = 0.573

DICPCG:  Solving for T, Initial residual = 0.0891403, Final residual = 2.92312e-05, No Iterations 1
Time = 0.574

DICPCG:  Solving for T, Initial residual = 0.107163, Final residual = 3.65771e-05, No Iterations 1
Time = 0.575

DICPCG:  Solving for T, Initial residual = 0.127848, Final residual = 4.54005e-05, No Iterations 1
Time = 0.576

DICPCG:  Solving for T, Initial residual = 0.14889, Final residual = 5.49819e-05, No Iterations 1
Time = 0.577

DICPCG:  Solving for T, Initial residual = 0.16704, Final residual = 6.41098e-05, No Iterations 1
Time = 0.578

DICPCG:  Solving for T, Initial residual = 0.178021, Final residual = 7.09691e-05, No Iterations 1
Time = 0.579

DICPCG:  Solving for T, Initial residual = 0.178538, Final residual = 7.3883e-05, No Iterations 1
Time = 0.58

DICPCG:  Solving for T, Initial residual = 0.168297, Final residual = 7.22457e-05, No Iterations 1
Time = 0.581

DICPCG:  Solving for T, Initial residual = 0.150368, Final residual = 6.69119e-05, No Iterations 1
Time = 0.582

DICPCG:  Solving for T, Initial residual = 0.129113, Final residual = 5.95118e-05, No Iterations 1
Time = 0.583

DICPCG:  Solving for T, Initial residual = 0.107989, Final residual = 5.15184e-05, No Iterations 1
Time = 0.584

DICPCG:  Solving for T, Initial residual = 0.0894951, Final residual = 4.41546e-05, No Iterations 1
Time = 0.585

DICPCG:  Solving for T, Initial residual = 0.0751878, Final residual = 3.83315e-05, No Iterations 1
Time = 0.586

DICPCG:  Solving for T, Initial residual = 0.0645539, Final residual = 3.39774e-05, No Iterations 1
Time = 0.587

DICPCG:  Solving for T, Initial residual = 0.0563667, Final residual = 3.06032e-05, No Iterations 1
Time = 0.588

DICPCG:  Solving for T, Initial residual = 0.0498509, Final residual = 2.78934e-05, No Iterations 1
Time = 0.589

DICPCG:  Solving for T, Initial residual = 0.0445263, Final residual = 2.56526e-05, No Iterations 1
Time = 0.59

DICPCG:  Solving for T, Initial residual = 0.0400801, Final residual = 2.37534e-05, No Iterations 1
Time = 0.591

DICPCG:  Solving for T, Initial residual = 0.0362999, Final residual = 2.21093e-05, No Iterations 1
Time = 0.592

DICPCG:  Solving for T, Initial residual = 0.0330363, Final residual = 2.06595e-05, No Iterations 1
Time = 0.593

DICPCG:  Solving for T, Initial residual = 0.0301811, Final residual = 1.93599e-05, No Iterations 1
Time = 0.594

DICPCG:  Solving for T, Initial residual = 0.0276541, Final residual = 1.81781e-05, No Iterations 1
Time = 0.595

DICPCG:  Solving for T, Initial residual = 0.0253945, Final residual = 1.70894e-05, No Iterations 1
Time = 0.596

DICPCG:  Solving for T, Initial residual = 0.0233552, Final residual = 1.60748e-05, No Iterations 1
Time = 0.597

DICPCG:  Solving for T, Initial residual = 0.0214995, Final residual = 1.51196e-05, No Iterations 1
Time = 0.598

DICPCG:  Solving for T, Initial residual = 0.019798, Final residual = 1.42122e-05, No Iterations 1
Time = 0.599

DICPCG:  Solving for T, Initial residual = 0.0182269, Final residual = 1.33432e-05, No Iterations 1
Time = 0.6

DICPCG:  Solving for T, Initial residual = 0.016767, Final residual = 1.25052e-05, No Iterations 1
Time = 0.601

DICPCG:  Solving for T, Initial residual = 0.0154022, Final residual = 1.16923e-05, No Iterations 1
Time = 0.602

DICPCG:  Solving for T, Initial residual = 0.0141193, Final residual = 1.08993e-05, No Iterations 1
Time = 0.603

DICPCG:  Solving for T, Initial residual = 0.012907, Final residual = 1.01225e-05, No Iterations 1
Time = 0.604

DICPCG:  Solving for T, Initial residual = 0.0117559, Final residual = 9.35841e-06, No Iterations 1
Time = 0.605

DICPCG:  Solving for T, Initial residual = 0.0106576, Final residual = 8.60446e-06, No Iterations 1
Time = 0.606

DICPCG:  Solving for T, Initial residual = 0.00960525, Final residual = 7.85844e-06, No Iterations 1
Time = 0.607

DICPCG:  Solving for T, Initial residual = 0.00859255, Final residual = 7.11859e-06, No Iterations 1
Time = 0.608

DICPCG:  Solving for T, Initial residual = 0.0076141, Final residual = 6.38345e-06, No Iterations 1
Time = 0.609

DICPCG:  Solving for T, Initial residual = 0.00666509, Final residual = 5.65186e-06, No Iterations 1
Time = 0.61

DICPCG:  Solving for T, Initial residual = 0.00574118, Final residual = 4.92285e-06, No Iterations 1
Time = 0.611

DICPCG:  Solving for T, Initial residual = 0.00483846, Final residual = 4.19562e-06, No Iterations 1
Time = 0.612

DICPCG:  Solving for T, Initial residual = 0.00395335, Final residual = 3.46945e-06, No Iterations 1
Time = 0.613

DICPCG:  Solving for T, Initial residual = 0.00308254, Final residual = 2.7436e-06, No Iterations 1
Time = 0.614

DICPCG:  Solving for T, Initial residual = 0.00222322, Final residual = 2.01697e-06, No Iterations 1
Time = 0.615

DICPCG:  Solving for T, Initial residual = 0.00137291, Final residual = 1.28718e-06, No Iterations 1
Time = 0.616

DICPCG:  Solving for T, Initial residual = 0.000631108, Final residual = 6.31835e-07, No Iterations 1
Time = 0.617

DICPCG:  Solving for T, Initial residual = 0.000401765, Final residual = 6.72807e-07, No Iterations 1
Time = 0.618

DICPCG:  Solving for T, Initial residual = 0.00116092, Final residual = 8.19021e-07, No Iterations 1
Time = 0.619

DICPCG:  Solving for T, Initial residual = 0.00200659, Final residual = 1.55525e-06, No Iterations 1
Time = 0.62

DICPCG:  Solving for T, Initial residual = 0.00285787, Final residual = 2.28304e-06, No Iterations 1
Time = 0.621

DICPCG:  Solving for T, Initial residual = 0.00371736, Final residual = 3.00834e-06, No Iterations 1
Time = 0.622

DICPCG:  Solving for T, Initial residual = 0.00458797, Final residual = 3.73299e-06, No Iterations 1
Time = 0.623

DICPCG:  Solving for T, Initial residual = 0.00547279, Final residual = 4.45792e-06, No Iterations 1
Time = 0.624

DICPCG:  Solving for T, Initial residual = 0.0063751, Final residual = 5.18386e-06, No Iterations 1
Time = 0.625

DICPCG:  Solving for T, Initial residual = 0.00729844, Final residual = 5.91156e-06, No Iterations 1
Time = 0.626

DICPCG:  Solving for T, Initial residual = 0.00824668, Final residual = 6.64187e-06, No Iterations 1
Time = 0.627

DICPCG:  Solving for T, Initial residual = 0.00922411, Final residual = 7.37578e-06, No Iterations 1
Time = 0.628

DICPCG:  Solving for T, Initial residual = 0.0102355, Final residual = 8.11454e-06, No Iterations 1
Time = 0.629

DICPCG:  Solving for T, Initial residual = 0.0112861, Final residual = 8.85965e-06, No Iterations 1
Time = 0.63

DICPCG:  Solving for T, Initial residual = 0.0123821, Final residual = 9.61298e-06, No Iterations 1
Time = 0.631

DICPCG:  Solving for T, Initial residual = 0.0135305, Final residual = 1.03768e-05, No Iterations 1
Time = 0.632

DICPCG:  Solving for T, Initial residual = 0.0147391, Final residual = 1.11538e-05, No Iterations 1
Time = 0.633

DICPCG:  Solving for T, Initial residual = 0.0160175, Final residual = 1.19475e-05, No Iterations 1
Time = 0.634

DICPCG:  Solving for T, Initial residual = 0.0173765, Final residual = 1.27619e-05, No Iterations 1
Time = 0.635

DICPCG:  Solving for T, Initial residual = 0.0188292, Final residual = 1.3602e-05, No Iterations 1
Time = 0.636

DICPCG:  Solving for T, Initial residual = 0.0203913, Final residual = 1.44739e-05, No Iterations 1
Time = 0.637

DICPCG:  Solving for T, Initial residual = 0.0220816, Final residual = 1.53854e-05, No Iterations 1
Time = 0.638

DICPCG:  Solving for T, Initial residual = 0.0239232, Final residual = 1.63457e-05, No Iterations 1
Time = 0.639

DICPCG:  Solving for T, Initial residual = 0.0259446, Final residual = 1.73667e-05, No Iterations 1
Time = 0.64

DICPCG:  Solving for T, Initial residual = 0.0281818, Final residual = 1.84631e-05, No Iterations 1
Time = 0.641

DICPCG:  Solving for T, Initial residual = 0.0306802, Final residual = 1.96541e-05, No Iterations 1
Time = 0.642

DICPCG:  Solving for T, Initial residual = 0.0334989, Final residual = 2.09643e-05, No Iterations 1
Time = 0.643

DICPCG:  Solving for T, Initial residual = 0.0367152, Final residual = 2.24263e-05, No Iterations 1
Time = 0.644

DICPCG:  Solving for T, Initial residual = 0.0404334, Final residual = 2.40838e-05, No Iterations 1
Time = 0.645

DICPCG:  Solving for T, Initial residual = 0.0447971, Final residual = 2.59973e-05, No Iterations 1
Time = 0.646

DICPCG:  Solving for T, Initial residual = 0.0500095, Final residual = 2.82522e-05, No Iterations 1
Time = 0.647

DICPCG:  Solving for T, Initial residual = 0.0563685, Final residual = 3.09741e-05, No Iterations 1
Time = 0.648

DICPCG:  Solving for T, Initial residual = 0.0643292, Final residual = 3.43542e-05, No Iterations 1
Time = 0.649

DICPCG:  Solving for T, Initial residual = 0.074623, Final residual = 3.87001e-05, No Iterations 1
Time = 0.65

DICPCG:  Solving for T, Initial residual = 0.0885026, Final residual = 4.45383e-05, No Iterations 1
Time = 0.651

DICPCG:  Solving for T, Initial residual = 0.108076, Final residual = 5.27385e-05, No Iterations 1
Time = 0.652

DICPCG:  Solving for T, Initial residual = 0.134339, Final residual = 6.35207e-05, No Iterations 1
Time = 0.653

DICPCG:  Solving for T, Initial residual = 0.164608, Final residual = 7.53682e-05, No Iterations 1
Time = 0.654

DICPCG:  Solving for T, Initial residual = 0.193444, Final residual = 8.57115e-05, No Iterations 1
Time = 0.655

DICPCG:  Solving for T, Initial residual = 0.212623, Final residual = 9.11129e-05, No Iterations 1
Time = 0.656

DICPCG:  Solving for T, Initial residual = 0.214122, Final residual = 8.8689e-05, No Iterations 1
Time = 0.657

DICPCG:  Solving for T, Initial residual = 0.197189, Final residual = 7.89044e-05, No Iterations 1
Time = 0.658

DICPCG:  Solving for T, Initial residual = 0.16909, Final residual = 6.53337e-05, No Iterations 1
Time = 0.659

DICPCG:  Solving for T, Initial residual = 0.138439, Final residual = 5.16281e-05, No Iterations 1
Time = 0.66

DICPCG:  Solving for T, Initial residual = 0.111065, Final residual = 3.99612e-05, No Iterations 1
Time = 0.661

DICPCG:  Solving for T, Initial residual = 0.0903454, Final residual = 3.1351e-05, No Iterations 1
Time = 0.662

DICPCG:  Solving for T, Initial residual = 0.0757029, Final residual = 2.53286e-05, No Iterations 1
Time = 0.663

DICPCG:  Solving for T, Initial residual = 0.0649331, Final residual = 2.09415e-05, No Iterations 1
Time = 0.664

DICPCG:  Solving for T, Initial residual = 0.0566553, Final residual = 1.76091e-05, No Iterations 1
Time = 0.665

DICPCG:  Solving for T, Initial residual = 0.0500749, Final residual = 1.49972e-05, No Iterations 1
Time = 0.666

DICPCG:  Solving for T, Initial residual = 0.0447024, Final residual = 1.28994e-05, No Iterations 1
Time = 0.667

DICPCG:  Solving for T, Initial residual = 0.0402196, Final residual = 1.11817e-05, No Iterations 1
Time = 0.668

DICPCG:  Solving for T, Initial residual = 0.0364107, Final residual = 9.75296e-06, No Iterations 1
Time = 0.669

DICPCG:  Solving for T, Initial residual = 0.0331241, Final residual = 8.549e-06, No Iterations 1
Time = 0.67

DICPCG:  Solving for T, Initial residual = 0.0302503, Final residual = 7.52337e-06, No Iterations 1
Time = 0.671

DICPCG:  Solving for T, Initial residual = 0.027708, Final residual = 6.64152e-06, No Iterations 1
Time = 0.672

DICPCG:  Solving for T, Initial residual = 0.0254358, Final residual = 5.8772e-06, No Iterations 1
Time = 0.673

DICPCG:  Solving for T, Initial residual = 0.0233861, Final residual = 5.21009e-06, No Iterations 1
Time = 0.674

DICPCG:  Solving for T, Initial residual = 0.0215218, Final residual = 4.62418e-06, No Iterations 1
Time = 0.675

DICPCG:  Solving for T, Initial residual = 0.0198131, Final residual = 4.10666e-06, No Iterations 1
Time = 0.676

DICPCG:  Solving for T, Initial residual = 0.0182363, Final residual = 3.64717e-06, No Iterations 1
Time = 0.677

DICPCG:  Solving for T, Initial residual = 0.0167718, Final residual = 3.23717e-06, No Iterations 1
Time = 0.678

DICPCG:  Solving for T, Initial residual = 0.0154036, Final residual = 2.86961e-06, No Iterations 1
Time = 0.679

DICPCG:  Solving for T, Initial residual = 0.014118, Final residual = 2.53855e-06, No Iterations 1
Time = 0.68

DICPCG:  Solving for T, Initial residual = 0.012904, Final residual = 2.23898e-06, No Iterations 1
Time = 0.681

DICPCG:  Solving for T, Initial residual = 0.0117518, Final residual = 1.96659e-06, No Iterations 1
Time = 0.682

DICPCG:  Solving for T, Initial residual = 0.0106532, Final residual = 1.71769e-06, No Iterations 1
Time = 0.683

DICPCG:  Solving for T, Initial residual = 0.00960111, Final residual = 1.48904e-06, No Iterations 1
Time = 0.684

DICPCG:  Solving for T, Initial residual = 0.00858926, Final residual = 1.27782e-06, No Iterations 1
Time = 0.685

DICPCG:  Solving for T, Initial residual = 0.00761218, Final residual = 1.08152e-06, No Iterations 1
Time = 0.686

DICPCG:  Solving for T, Initial residual = 0.006665, Final residual = 8.97902e-07, No Iterations 1
Time = 0.687

DICPCG:  Solving for T, Initial residual = 0.00574335, Final residual = 7.24966e-07, No Iterations 1
Time = 0.688

DICPCG:  Solving for T, Initial residual = 0.00484328, Final residual = 5.60887e-07, No Iterations 1
Time = 0.689

DICPCG:  Solving for T, Initial residual = 0.00396116, Final residual = 4.04014e-07, No Iterations 1
Time = 0.69

DICPCG:  Solving for T, Initial residual = 0.00309363, Final residual = 2.52853e-07, No Iterations 1
Time = 0.691

[...]
Time = 9.826

DICPCG:  Solving for T, Initial residual = 0.157181, Final residual = 6.77118e-05, No Iterations 1
Time = 9.827

DICPCG:  Solving for T, Initial residual = 0.118756, Final residual = 5.11141e-05, No Iterations 1
Time = 9.828

DICPCG:  Solving for T, Initial residual = 0.0951326, Final residual = 4.09098e-05, No Iterations 1
Time = 9.829

DICPCG:  Solving for T, Initial residual = 0.0790943, Final residual = 3.3982e-05, No Iterations 1
Time = 9.83

DICPCG:  Solving for T, Initial residual = 0.06746, Final residual = 2.89566e-05, No Iterations 1
Time = 9.831

DICPCG:  Solving for T, Initial residual = 0.058609, Final residual = 2.51333e-05, No Iterations 1
Time = 9.832

DICPCG:  Solving for T, Initial residual = 0.0516284, Final residual = 2.21181e-05, No Iterations 1
Time = 9.833

DICPCG:  Solving for T, Initial residual = 0.0459649, Final residual = 1.96717e-05, No Iterations 1
Time = 9.834

DICPCG:  Solving for T, Initial residual = 0.0412637, Final residual = 1.7641e-05, No Iterations 1
Time = 9.835

DICPCG:  Solving for T, Initial residual = 0.0372865, Final residual = 1.59231e-05, No Iterations 1
Time = 9.836

DICPCG:  Solving for T, Initial residual = 0.0338675, Final residual = 1.44462e-05, No Iterations 1
Time = 9.837

DICPCG:  Solving for T, Initial residual = 0.0308876, Final residual = 1.31591e-05, No Iterations 1
Time = 9.838

DICPCG:  Solving for T, Initial residual = 0.0282591, Final residual = 1.20237e-05, No Iterations 1
Time = 9.839

DICPCG:  Solving for T, Initial residual = 0.0259159, Final residual = 1.10116e-05, No Iterations 1
Time = 9.84

DICPCG:  Solving for T, Initial residual = 0.0238074, Final residual = 1.01008e-05, No Iterations 1
Time = 9.841

DICPCG:  Solving for T, Initial residual = 0.0218939, Final residual = 9.27429e-06, No Iterations 1
Time = 9.842

DICPCG:  Solving for T, Initial residual = 0.020144, Final residual = 8.51842e-06, No Iterations 1
Time = 9.843

DICPCG:  Solving for T, Initial residual = 0.0185324, Final residual = 7.82231e-06, No Iterations 1
Time = 9.844

DICPCG:  Solving for T, Initial residual = 0.0170386, Final residual = 7.17708e-06, No Iterations 1
Time = 9.845

DICPCG:  Solving for T, Initial residual = 0.0156457, Final residual = 6.57541e-06, No Iterations 1
Time = 9.846

DICPCG:  Solving for T, Initial residual = 0.0143395, Final residual = 6.01123e-06, No Iterations 1
Time = 9.847

DICPCG:  Solving for T, Initial residual = 0.0131083, Final residual = 5.47942e-06, No Iterations 1
Time = 9.848

DICPCG:  Solving for T, Initial residual = 0.011942, Final residual = 4.97564e-06, No Iterations 1
Time = 9.849

DICPCG:  Solving for T, Initial residual = 0.0108319, Final residual = 4.49619e-06, No Iterations 1
Time = 9.85

DICPCG:  Solving for T, Initial residual = 0.00977081, Final residual = 4.03786e-06, No Iterations 1
Time = 9.851

DICPCG:  Solving for T, Initial residual = 0.00875209, Final residual = 3.59786e-06, No Iterations 1
Time = 9.852

DICPCG:  Solving for T, Initial residual = 0.00777008, Final residual = 3.17372e-06, No Iterations 1
Time = 9.853

DICPCG:  Solving for T, Initial residual = 0.00681973, Final residual = 2.76326e-06, No Iterations 1
Time = 9.854

DICPCG:  Solving for T, Initial residual = 0.00589652, Final residual = 2.36455e-06, No Iterations 1
Time = 9.855

DICPCG:  Solving for T, Initial residual = 0.00499634, Final residual = 1.9758e-06, No Iterations 1
Time = 9.856

DICPCG:  Solving for T, Initial residual = 0.00411547, Final residual = 1.59542e-06, No Iterations 1
Time = 9.857

DICPCG:  Solving for T, Initial residual = 0.00325042, Final residual = 1.22195e-06, No Iterations 1
Time = 9.858

DICPCG:  Solving for T, Initial residual = 0.00239798, Final residual = 8.54039e-07, No Iterations 1
Time = 9.859

DICPCG:  Solving for T, Initial residual = 0.00155509, Final residual = 4.90581e-07, No Iterations 1
Time = 9.86

DICPCG:  Solving for T, Initial residual = 0.000719162, Final residual = 1.31433e-07, No Iterations 1
Time = 9.861

DICPCG:  Solving for T, Initial residual = 0.000113655, Final residual = 2.57128e-07, No Iterations 1
Time = 9.862

DICPCG:  Solving for T, Initial residual = 0.000945098, Final residual = 5.94122e-07, No Iterations 1
Time = 9.863

DICPCG:  Solving for T, Initial residual = 0.00177833, Final residual = 9.52674e-07, No Iterations 1
Time = 9.864

DICPCG:  Solving for T, Initial residual = 0.00261611, Final residual = 1.31406e-06, No Iterations 1
Time = 9.865

DICPCG:  Solving for T, Initial residual = 0.00346131, Final residual = 1.67888e-06, No Iterations 1
Time = 9.866

DICPCG:  Solving for T, Initial residual = 0.00431688, Final residual = 2.04827e-06, No Iterations 1
Time = 9.867

DICPCG:  Solving for T, Initial residual = 0.00518592, Final residual = 2.42354e-06, No Iterations 1
Time = 9.868

DICPCG:  Solving for T, Initial residual = 0.0060717, Final residual = 2.80608e-06, No Iterations 1
Time = 9.869

DICPCG:  Solving for T, Initial residual = 0.00697778, Final residual = 3.1974e-06, No Iterations 1
Time = 9.87

DICPCG:  Solving for T, Initial residual = 0.00790797, Final residual = 3.59915e-06, No Iterations 1
Time = 9.871

DICPCG:  Solving for T, Initial residual = 0.00886649, Final residual = 4.01315e-06, No Iterations 1
Time = 9.872

DICPCG:  Solving for T, Initial residual = 0.00985799, Final residual = 4.4414e-06, No Iterations 1
Time = 9.873

DICPCG:  Solving for T, Initial residual = 0.0108877, Final residual = 4.88615e-06, No Iterations 1
Time = 9.874

DICPCG:  Solving for T, Initial residual = 0.0119615, Final residual = 5.34995e-06, No Iterations 1
Time = 9.875

DICPCG:  Solving for T, Initial residual = 0.0130861, Final residual = 5.8357e-06, No Iterations 1
Time = 9.876

DICPCG:  Solving for T, Initial residual = 0.0142692, Final residual = 6.34674e-06, No Iterations 1
Time = 9.877

DICPCG:  Solving for T, Initial residual = 0.0155198, Final residual = 6.88693e-06, No Iterations 1
Time = 9.878

DICPCG:  Solving for T, Initial residual = 0.0168484, Final residual = 7.46079e-06, No Iterations 1
Time = 9.879

DICPCG:  Solving for T, Initial residual = 0.0182673, Final residual = 8.0737e-06, No Iterations 1
Time = 9.88

DICPCG:  Solving for T, Initial residual = 0.0197915, Final residual = 8.73203e-06, No Iterations 1
Time = 9.881

DICPCG:  Solving for T, Initial residual = 0.0214386, Final residual = 9.44349e-06, No Iterations 1
Time = 9.882

DICPCG:  Solving for T, Initial residual = 0.0232304, Final residual = 1.02175e-05, No Iterations 1
Time = 9.883

DICPCG:  Solving for T, Initial residual = 0.0251937, Final residual = 1.10655e-05, No Iterations 1
Time = 9.884

DICPCG:  Solving for T, Initial residual = 0.0273619, Final residual = 1.2002e-05, No Iterations 1
Time = 9.885

DICPCG:  Solving for T, Initial residual = 0.0297773, Final residual = 1.30454e-05, No Iterations 1
Time = 9.886

DICPCG:  Solving for T, Initial residual = 0.0324944, Final residual = 1.4219e-05, No Iterations 1
Time = 9.887

DICPCG:  Solving for T, Initial residual = 0.0355843, Final residual = 1.55537e-05, No Iterations 1
Time = 9.888

DICPCG:  Solving for T, Initial residual = 0.0391422, Final residual = 1.70905e-05, No Iterations 1
Time = 9.889

DICPCG:  Solving for T, Initial residual = 0.043298, Final residual = 1.88856e-05, No Iterations 1
Time = 9.89

DICPCG:  Solving for T, Initial residual = 0.0482342, Final residual = 2.10178e-05, No Iterations 1
Time = 9.891

DICPCG:  Solving for T, Initial residual = 0.0542154, Final residual = 2.36014e-05, No Iterations 1
Time = 9.892

DICPCG:  Solving for T, Initial residual = 0.0616402, Final residual = 2.68086e-05, No Iterations 1
Time = 9.893

DICPCG:  Solving for T, Initial residual = 0.0711391, Final residual = 3.09116e-05, No Iterations 1
Time = 9.894

DICPCG:  Solving for T, Initial residual = 0.0837707, Final residual = 3.63679e-05, No Iterations 1
Time = 9.895

DICPCG:  Solving for T, Initial residual = 0.101461, Final residual = 4.40094e-05, No Iterations 1
Time = 9.896

DICPCG:  Solving for T, Initial residual = 0.128123, Final residual = 5.55258e-05, No Iterations 1
Time = 9.897

DICPCG:  Solving for T, Initial residual = 0.173095, Final residual = 7.49517e-05, No Iterations 1
Time = 9.898

DICPCG:  Solving for T, Initial residual = 0.265577, Final residual = 0.0001149, No Iterations 1
Time = 9.899

DICPCG:  Solving for T, Initial residual = 0.567201, Final residual = 0.000245186, No Iterations 1
Time = 9.9

DICPCG:  Solving for T, Initial residual = 0.998954, Final residual = 0.000431456, No Iterations 1
Time = 9.901

DICPCG:  Solving for T, Initial residual = 0.446165, Final residual = 0.000192539, No Iterations 1
Time = 9.902

DICPCG:  Solving for T, Initial residual = 0.234946, Final residual = 0.000101302, No Iterations 1
Time = 9.903

DICPCG:  Solving for T, Initial residual = 0.159008, Final residual = 6.85009e-05, No Iterations 1
Time = 9.904

DICPCG:  Solving for T, Initial residual = 0.119811, Final residual = 5.15696e-05, No Iterations 1
Time = 9.905

DICPCG:  Solving for T, Initial residual = 0.09582, Final residual = 4.12067e-05, No Iterations 1
Time = 9.906

DICPCG:  Solving for T, Initial residual = 0.0795789, Final residual = 3.41913e-05, No Iterations 1
Time = 9.907

DICPCG:  Solving for T, Initial residual = 0.067821, Final residual = 2.91125e-05, No Iterations 1
Time = 9.908

DICPCG:  Solving for T, Initial residual = 0.0588891, Final residual = 2.52543e-05, No Iterations 1
Time = 9.909

DICPCG:  Solving for T, Initial residual = 0.0518526, Final residual = 2.22149e-05, No Iterations 1
Time = 9.91

DICPCG:  Solving for T, Initial residual = 0.0461491, Final residual = 1.97513e-05, No Iterations 1
Time = 9.911

DICPCG:  Solving for T, Initial residual = 0.0414181, Final residual = 1.77078e-05, No Iterations 1
Time = 9.912

DICPCG:  Solving for T, Initial residual = 0.0374183, Final residual = 1.598e-05, No Iterations 1
Time = 9.913

DICPCG:  Solving for T, Initial residual = 0.0339815, Final residual = 1.44955e-05, No Iterations 1
Time = 9.914

DICPCG:  Solving for T, Initial residual = 0.0309876, Final residual = 1.32023e-05, No Iterations 1
Time = 9.915

DICPCG:  Solving for T, Initial residual = 0.0283478, Final residual = 1.2062e-05, No Iterations 1
Time = 9.916

DICPCG:  Solving for T, Initial residual = 0.0259954, Final residual = 1.10459e-05, No Iterations 1
Time = 9.917

DICPCG:  Solving for T, Initial residual = 0.0238792, Final residual = 1.01318e-05, No Iterations 1
Time = 9.918

DICPCG:  Solving for T, Initial residual = 0.0219593, Final residual = 9.30255e-06, No Iterations 1
Time = 9.919

DICPCG:  Solving for T, Initial residual = 0.020204, Final residual = 8.54436e-06, No Iterations 1
Time = 9.92

DICPCG:  Solving for T, Initial residual = 0.0185879, Final residual = 7.84627e-06, No Iterations 1
Time = 9.921

DICPCG:  Solving for T, Initial residual = 0.0170902, Final residual = 7.19936e-06, No Iterations 1
Time = 9.922

DICPCG:  Solving for T, Initial residual = 0.0156939, Final residual = 6.59624e-06, No Iterations 1
Time = 9.923

DICPCG:  Solving for T, Initial residual = 0.0143848, Final residual = 6.03081e-06, No Iterations 1
Time = 9.924

DICPCG:  Solving for T, Initial residual = 0.0131511, Final residual = 5.49792e-06, No Iterations 1
Time = 9.925

DICPCG:  Solving for T, Initial residual = 0.0119826, Final residual = 4.99321e-06, No Iterations 1
Time = 9.926

DICPCG:  Solving for T, Initial residual = 0.0108707, Final residual = 4.51295e-06, No Iterations 1
Time = 9.927

DICPCG:  Solving for T, Initial residual = 0.00980798, Final residual = 4.05392e-06, No Iterations 1
Time = 9.928

DICPCG:  Solving for T, Initial residual = 0.00878785, Final residual = 3.6133e-06, No Iterations 1
Time = 9.929

DICPCG:  Solving for T, Initial residual = 0.00780461, Final residual = 3.18863e-06, No Iterations 1
Time = 9.93

DICPCG:  Solving for T, Initial residual = 0.00685322, Final residual = 2.77772e-06, No Iterations 1
Time = 9.931

DICPCG:  Solving for T, Initial residual = 0.00592911, Final residual = 2.37862e-06, No Iterations 1
Time = 9.932

DICPCG:  Solving for T, Initial residual = 0.00502818, Final residual = 1.98954e-06, No Iterations 1
Time = 9.933

DICPCG:  Solving for T, Initial residual = 0.00414667, Final residual = 1.60889e-06, No Iterations 1
Time = 9.934

DICPCG:  Solving for T, Initial residual = 0.00328112, Final residual = 1.23519e-06, No Iterations 1
Time = 9.935

DICPCG:  Solving for T, Initial residual = 0.00242828, Final residual = 8.67109e-07, No Iterations 1
Time = 9.936

DICPCG:  Solving for T, Initial residual = 0.0015851, Final residual = 5.03506e-07, No Iterations 1
Time = 9.937

DICPCG:  Solving for T, Initial residual = 0.000748946, Final residual = 1.44158e-07, No Iterations 1
Time = 9.938

DICPCG:  Solving for T, Initial residual = 8.3924e-05, Final residual = 2.53328e-07, No Iterations 1
Time = 9.939

DICPCG:  Solving for T, Initial residual = 0.000915346, Final residual = 5.81357e-07, No Iterations 1
Time = 9.94

DICPCG:  Solving for T, Initial residual = 0.00174846, Final residual = 9.39812e-07, No Iterations 1
Time = 9.941

DICPCG:  Solving for T, Initial residual = 0.00258604, Final residual = 1.3011e-06, No Iterations 1
Time = 9.942

DICPCG:  Solving for T, Initial residual = 0.00343092, Final residual = 1.66577e-06, No Iterations 1
Time = 9.943

DICPCG:  Solving for T, Initial residual = 0.00428607, Final residual = 2.03497e-06, No Iterations 1
Time = 9.944

DICPCG:  Solving for T, Initial residual = 0.00515457, Final residual = 2.41e-06, No Iterations 1
Time = 9.945

DICPCG:  Solving for T, Initial residual = 0.0060397, Final residual = 2.79226e-06, No Iterations 1
Time = 9.946

DICPCG:  Solving for T, Initial residual = 0.00694498, Final residual = 3.18324e-06, No Iterations 1
Time = 9.947

DICPCG:  Solving for T, Initial residual = 0.00787424, Final residual = 3.58459e-06, No Iterations 1
Time = 9.948

DICPCG:  Solving for T, Initial residual = 0.00883167, Final residual = 3.99811e-06, No Iterations 1
Time = 9.949

DICPCG:  Solving for T, Initial residual = 0.0098219, Final residual = 4.42581e-06, No Iterations 1
Time = 9.95

DICPCG:  Solving for T, Initial residual = 0.0108501, Final residual = 4.86993e-06, No Iterations 1
Time = 9.951

DICPCG:  Solving for T, Initial residual = 0.0119222, Final residual = 5.33301e-06, No Iterations 1
Time = 9.952

DICPCG:  Solving for T, Initial residual = 0.0130449, Final residual = 5.81792e-06, No Iterations 1
Time = 9.953

DICPCG:  Solving for T, Initial residual = 0.0142258, Final residual = 6.32799e-06, No Iterations 1
Time = 9.954

DICPCG:  Solving for T, Initial residual = 0.0154738, Final residual = 6.86706e-06, No Iterations 1
Time = 9.955

DICPCG:  Solving for T, Initial residual = 0.0167994, Final residual = 7.43963e-06, No Iterations 1
Time = 9.956

DICPCG:  Solving for T, Initial residual = 0.0182149, Final residual = 8.05104e-06, No Iterations 1
Time = 9.957

DICPCG:  Solving for T, Initial residual = 0.0197349, Final residual = 8.70763e-06, No Iterations 1
Time = 9.958

DICPCG:  Solving for T, Initial residual = 0.0213773, Final residual = 9.41703e-06, No Iterations 1
Time = 9.959

DICPCG:  Solving for T, Initial residual = 0.0231635, Final residual = 1.01886e-05, No Iterations 1
Time = 9.96

DICPCG:  Solving for T, Initial residual = 0.0251201, Final residual = 1.10337e-05, No Iterations 1
Time = 9.961

DICPCG:  Solving for T, Initial residual = 0.0272803, Final residual = 1.19668e-05, No Iterations 1
Time = 9.962

DICPCG:  Solving for T, Initial residual = 0.0296861, Final residual = 1.3006e-05, No Iterations 1
Time = 9.963

DICPCG:  Solving for T, Initial residual = 0.0323912, Final residual = 1.41745e-05, No Iterations 1
Time = 9.964

DICPCG:  Solving for T, Initial residual = 0.0354663, Final residual = 1.55028e-05, No Iterations 1
Time = 9.965

DICPCG:  Solving for T, Initial residual = 0.0390055, Final residual = 1.70315e-05, No Iterations 1
Time = 9.966

DICPCG:  Solving for T, Initial residual = 0.0431372, Final residual = 1.88162e-05, No Iterations 1
Time = 9.967

DICPCG:  Solving for T, Initial residual = 0.0480415, Final residual = 2.09346e-05, No Iterations 1
Time = 9.968

DICPCG:  Solving for T, Initial residual = 0.0539795, Final residual = 2.34995e-05, No Iterations 1
Time = 9.969

DICPCG:  Solving for T, Initial residual = 0.0613436, Final residual = 2.66805e-05, No Iterations 1
Time = 9.97

DICPCG:  Solving for T, Initial residual = 0.0707534, Final residual = 3.0745e-05, No Iterations 1
Time = 9.971

DICPCG:  Solving for T, Initial residual = 0.083247, Final residual = 3.61416e-05, No Iterations 1
Time = 9.972

DICPCG:  Solving for T, Initial residual = 0.100707, Final residual = 4.36834e-05, No Iterations 1
Time = 9.973

DICPCG:  Solving for T, Initial residual = 0.126937, Final residual = 5.50136e-05, No Iterations 1
Time = 9.974

DICPCG:  Solving for T, Initial residual = 0.170958, Final residual = 7.40287e-05, No Iterations 1
Time = 9.975

DICPCG:  Solving for T, Initial residual = 0.260611, Final residual = 0.000112754, No Iterations 1
Time = 9.976

DICPCG:  Solving for T, Initial residual = 0.545105, Final residual = 0.000235642, No Iterations 1
Time = 9.977

DICPCG:  Solving for T, Initial residual = 0.999025, Final residual = 0.0004315, No Iterations 1
Time = 9.978

DICPCG:  Solving for T, Initial residual = 0.460936, Final residual = 0.000198919, No Iterations 1
Time = 9.979

DICPCG:  Solving for T, Initial residual = 0.239007, Final residual = 0.000103057, No Iterations 1
Time = 9.98

DICPCG:  Solving for T, Initial residual = 0.160878, Final residual = 6.93084e-05, No Iterations 1
Time = 9.981

DICPCG:  Solving for T, Initial residual = 0.120884, Final residual = 5.20332e-05, No Iterations 1
Time = 9.982

DICPCG:  Solving for T, Initial residual = 0.0965172, Final residual = 4.15078e-05, No Iterations 1
Time = 9.983

DICPCG:  Solving for T, Initial residual = 0.0800693, Final residual = 3.44032e-05, No Iterations 1
Time = 9.984

DICPCG:  Solving for T, Initial residual = 0.0681857, Final residual = 2.927e-05, No Iterations 1
Time = 9.985

DICPCG:  Solving for T, Initial residual = 0.0591716, Final residual = 2.53764e-05, No Iterations 1
Time = 9.986

DICPCG:  Solving for T, Initial residual = 0.0520787, Final residual = 2.23126e-05, No Iterations 1
Time = 9.987

DICPCG:  Solving for T, Initial residual = 0.0463346, Final residual = 1.98314e-05, No Iterations 1
Time = 9.988

DICPCG:  Solving for T, Initial residual = 0.0415736, Final residual = 1.77749e-05, No Iterations 1
Time = 9.989

DICPCG:  Solving for T, Initial residual = 0.0375508, Final residual = 1.60372e-05, No Iterations 1
Time = 9.99

DICPCG:  Solving for T, Initial residual = 0.0340962, Final residual = 1.45451e-05, No Iterations 1
Time = 9.991

DICPCG:  Solving for T, Initial residual = 0.0310881, Final residual = 1.32457e-05, No Iterations 1
Time = 9.992

DICPCG:  Solving for T, Initial residual = 0.0284369, Final residual = 1.21005e-05, No Iterations 1
Time = 9.993

DICPCG:  Solving for T, Initial residual = 0.0260752, Final residual = 1.10804e-05, No Iterations 1
Time = 9.994

DICPCG:  Solving for T, Initial residual = 0.0239513, Final residual = 1.0163e-05, No Iterations 1
Time = 9.995

DICPCG:  Solving for T, Initial residual = 0.022025, Final residual = 9.33091e-06, No Iterations 1
Time = 9.996

DICPCG:  Solving for T, Initial residual = 0.0202643, Final residual = 8.57038e-06, No Iterations 1
Time = 9.997

DICPCG:  Solving for T, Initial residual = 0.0186435, Final residual = 7.87031e-06, No Iterations 1
Time = 9.998

DICPCG:  Solving for T, Initial residual = 0.0171419, Final residual = 7.2217e-06, No Iterations 1
Time = 9.999

DICPCG:  Solving for T, Initial residual = 0.0157423, Final residual = 6.61713e-06, No Iterations 1
Time = 10

DICPCG:  Solving for T, Initial residual = 0.0144303, Final residual = 6.05044e-06, No Iterations 1
End

